<?xml version="1.0" encoding="UTF-8"?>

<!-- generated on 2025-04-29 12:53:46 by Eclipse SUMO netconvert Version 1.22.0
<netconvertConfiguration xmlns:xsi="http://www.w3.org/2001/XMLSchema-instance" xsi:noNamespaceSchemaLocation="http://sumo.dlr.de/xsd/netconvertConfiguration.xsd">

    <input>
        <sumo-net-file value="melun/melun.net.xml"/>
    </input>

    <output>
        <plain-output-prefix value="melun/melun"/>
    </output>

    <processing>
        <geometry.min-radius.fix.railways value="false"/>
        <geometry.max-grade.fix value="false"/>
        <offset.disable-normalization value="true"/>
        <lefthand value="0"/>
    </processing>

    <tls_building>
        <tls.ignore-internal-junction-jam value="1"/>
    </tls_building>

    <junctions>
        <no-turnarounds value="true"/>
        <junctions.corner-detail value="5"/>
        <junctions.limit-turn-speed value="5.50"/>
        <rectangular-lane-cut value="0"/>
    </junctions>

    <pedestrian>
        <walkingareas value="0"/>
    </pedestrian>

</netconvertConfiguration>
-->

<tlLogics version="1.20" xmlns:xsi="http://www.w3.org/2001/XMLSchema-instance" xsi:noNamespaceSchemaLocation="http://sumo.dlr.de/xsd/tllogic_file.xsd">
    <tlLogic id="10172129827" type="static" programID="0" offset="0">
        <phase duration="82" state="G"/>
        <phase duration="3"  state="y"/>
        <phase duration="5"  state="r"/>
    </tlLogic>
    <tlLogic id="11051202131" type="static" programID="0" offset="0">
        <phase duration="82" state="GG"/>
        <phase duration="3"  state="yy"/>
        <phase duration="5"  state="rr"/>
    </tlLogic>
    <tlLogic id="1378068849" type="static" programID="0" offset="0">
        <phase duration="40" state="GGGrr"/>
        <phase duration="5"  state="yyyrr"/>
        <phase duration="40" state="rrrGG"/>
        <phase duration="5"  state="rrryy"/>
    </tlLogic>
    <tlLogic id="1416347173" type="static" programID="0" offset="0">
        <phase duration="38" state="GGggrrrrGGgg"/>
        <phase duration="3"  state="yyggrrrryygg"/>
        <phase duration="6"  state="rrGGrrrrrrGG"/>
        <phase duration="3"  state="rryyrrrrrryy"/>
        <phase duration="37" state="rrrrGGGgGrrr"/>
        <phase duration="3"  state="rrrryyyyGrrr"/>
    </tlLogic>
    <tlLogic id="1454296908" type="static" programID="0" offset="0">
        <phase duration="79" state="G"/>
        <phase duration="6"  state="y"/>
        <phase duration="5"  state="r"/>
    </tlLogic>
    <tlLogic id="1473487167" type="static" programID="0" offset="0">
        <phase duration="80" state="G"/>
        <phase duration="5"  state="y"/>
        <phase duration="5"  state="r"/>
    </tlLogic>
    <tlLogic id="1580119430" type="static" programID="0" offset="0">
        <phase duration="42" state="GGggrrGGGg"/>
        <phase duration="3"  state="yyyyrrGyyy"/>
        <phase duration="42" state="rrrrGGGrrr"/>
        <phase duration="3"  state="rrrryyGrrr"/>
    </tlLogic>
    <tlLogic id="1582788160" type="static" programID="0" offset="0">
        <phase duration="38" state="GGGggrrrrGGGggrrrr"/>
        <phase duration="3"  state="yyyggrrrryyyggrrrr"/>
        <phase duration="6"  state="rrrGGrrrrrrrGGrrrr"/>
        <phase duration="3"  state="rrryyrrrrrrryyrrrr"/>
        <phase duration="37" state="rrrrrGGggrrrrrGGgg"/>
        <phase duration="3"  state="rrrrryyyyrrrrryyyy"/>
    </tlLogic>
    <tlLogic id="168796409" type="static" programID="0" offset="0">
        <phase duration="82" state="GG"/>
        <phase duration="3"  state="yy"/>
        <phase duration="5"  state="rr"/>
    </tlLogic>
    <tlLogic id="168807535" type="static" programID="0" offset="0">
        <phase duration="35" state="rrrrGGrrrrrrGGGrr"/>
        <phase duration="5"  state="rrrryyrrrrrryyyrr"/>
        <phase duration="6"  state="rrrrrrGGrrrrrrrGG"/>
        <phase duration="5"  state="rrrrrryyrrrrrrryy"/>
        <phase duration="34" state="GGggrrrrGGggrrrrr"/>
        <phase duration="5"  state="yyyyrrrryyyyrrrrr"/>
    </tlLogic>
    <tlLogic id="1817657693" type="static" programID="0" offset="0">
        <phase duration="80" state="G"/>
        <phase duration="5"  state="y"/>
        <phase duration="5"  state="r"/>
    </tlLogic>
    <tlLogic id="1817657751" type="static" programID="0" offset="0">
        <phase duration="82" state="GG"/>
        <phase duration="3"  state="yy"/>
        <phase duration="5"  state="rr"/>
    </tlLogic>
    <tlLogic id="1817657799" type="static" programID="0" offset="0">
        <phase duration="80" state="GG"/>
        <phase duration="5"  state="yy"/>
        <phase duration="5"  state="rr"/>
    </tlLogic>
    <tlLogic id="1835800361" type="static" programID="0" offset="0">
        <phase duration="82" state="GGG"/>
        <phase duration="3"  state="yyy"/>
        <phase duration="5"  state="rrr"/>
    </tlLogic>
    <tlLogic id="1835800408" type="static" programID="0" offset="0">
        <phase duration="82" state="GGG"/>
        <phase duration="3"  state="yyy"/>
        <phase duration="5"  state="rrr"/>
    </tlLogic>
    <tlLogic id="1835800426" type="static" programID="0" offset="0">
        <phase duration="42" state="GGgGGGgrrr"/>
        <phase duration="3"  state="yyyyyyyrrr"/>
        <phase duration="42" state="rrrrrrrGGG"/>
        <phase duration="3"  state="rrrrrrryyy"/>
    </tlLogic>
    <tlLogic id="2020441290" type="static" programID="0" offset="0">
        <phase duration="82" state="G"/>
        <phase duration="3"  state="y"/>
        <phase duration="5"  state="r"/>
    </tlLogic>
    <tlLogic id="2020470980" type="static" programID="0" offset="0">
        <phase duration="82" state="G"/>
        <phase duration="3"  state="y"/>
        <phase duration="5"  state="r"/>
    </tlLogic>
    <tlLogic id="2209761069" type="static" programID="0" offset="0">
        <phase duration="38" state="GGgrrrGGGg"/>
        <phase duration="3"  state="GGgrrryyyy"/>
        <phase duration="6"  state="GGGrrrrrrr"/>
        <phase duration="3"  state="yyyrrrrrrr"/>
        <phase duration="37" state="rrrGGgGrrr"/>
        <phase duration="3"  state="rrryyyGrrr"/>
    </tlLogic>
    <tlLogic id="2354926580" type="static" programID="0" offset="0">
        <phase duration="38" state="GGgGggrrr"/>
        <phase duration="3"  state="yyyGggrrr"/>
        <phase duration="6"  state="rrrGGGrrr"/>
        <phase duration="3"  state="rrryyyrrr"/>
        <phase duration="37" state="GrrrrrGGg"/>
        <phase duration="3"  state="Grrrrryyy"/>
    </tlLogic>
    <tlLogic id="2366265989" type="static" programID="0" offset="0">
        <phase duration="80" state="G"/>
        <phase duration="5"  state="y"/>
        <phase duration="5"  state="r"/>
    </tlLogic>
    <tlLogic id="2366266013" type="static" programID="0" offset="0">
        <phase duration="82" state="GG"/>
        <phase duration="3"  state="yy"/>
        <phase duration="5"  state="rr"/>
    </tlLogic>
    <tlLogic id="2409105400" type="static" programID="0" offset="0">
        <phase duration="82" state="GGG"/>
        <phase duration="3"  state="yyy"/>
        <phase duration="5"  state="rrr"/>
    </tlLogic>
    <tlLogic id="2409105412" type="static" programID="0" offset="0">
        <phase duration="79" state="GG"/>
        <phase duration="6"  state="yy"/>
        <phase duration="5"  state="rr"/>
    </tlLogic>
    <tlLogic id="2409105418" type="static" programID="0" offset="0">
        <phase duration="82" state="GGG"/>
        <phase duration="3"  state="yyy"/>
        <phase duration="5"  state="rrr"/>
    </tlLogic>
    <tlLogic id="2409105422" type="static" programID="0" offset="0">
        <phase duration="82" state="GG"/>
        <phase duration="3"  state="yy"/>
        <phase duration="5"  state="rr"/>
    </tlLogic>
    <tlLogic id="2409105429" type="static" programID="0" offset="0">
        <phase duration="82" state="GGG"/>
        <phase duration="3"  state="yyy"/>
        <phase duration="5"  state="rrr"/>
    </tlLogic>
    <tlLogic id="247805743" type="static" programID="0" offset="0">
        <phase duration="42" state="GGgGrrr"/>
        <phase duration="3"  state="yyyGrrr"/>
        <phase duration="42" state="rrrGGGG"/>
        <phase duration="3"  state="rrrGyyy"/>
    </tlLogic>
    <tlLogic id="247805744" type="static" programID="0" offset="0">
        <phase duration="42" state="GGrr"/>
        <phase duration="3"  state="yyrr"/>
        <phase duration="42" state="rrGG"/>
        <phase duration="3"  state="rryy"/>
    </tlLogic>
    <tlLogic id="270832181" type="static" programID="0" offset="0">
        <phase duration="33" state="GGGgGgggrrrr"/>
        <phase duration="6"  state="yyyyGgggrrrr"/>
        <phase duration="6"  state="rrrrGGGGrrrr"/>
        <phase duration="6"  state="rrrryyyyrrrr"/>
        <phase duration="33" state="GrrrrrrrGGGg"/>
        <phase duration="6"  state="Grrrrrrryyyy"/>
    </tlLogic>
    <tlLogic id="2725160850" type="static" programID="0" offset="0">
        <phase duration="82" state="GGG"/>
        <phase duration="3"  state="yyy"/>
        <phase duration="5"  state="rrr"/>
    </tlLogic>
    <tlLogic id="280714346" type="static" programID="0" offset="0">
        <phase duration="42" state="GgrrrrGg"/>
        <phase duration="3"  state="yyrrrryy"/>
        <phase duration="42" state="rrGGGGrr"/>
        <phase duration="3"  state="rryyyyrr"/>
    </tlLogic>
    <tlLogic id="280952384" type="static" programID="0" offset="0">
        <phase duration="33" state="rrrGrrGGg"/>
        <phase duration="6"  state="rrrGrryyy"/>
        <phase duration="6"  state="rrrGGGrrr"/>
        <phase duration="6"  state="rrryyyrrr"/>
        <phase duration="33" state="GGGrrrrrr"/>
        <phase duration="6"  state="yyyrrrrrr"/>
    </tlLogic>
    <tlLogic id="280973243" type="static" programID="0" offset="0">
        <phase duration="42" state="GGrr"/>
        <phase duration="3"  state="yyrr"/>
        <phase duration="42" state="rrGG"/>
        <phase duration="3"  state="rryy"/>
    </tlLogic>
    <tlLogic id="280977032" type="static" programID="0" offset="0">
        <phase duration="42" state="GGggGGggrrrr"/>
        <phase duration="3"  state="Gyyyyyyyrrrr"/>
        <phase duration="42" state="GrrrrrrrGGGg"/>
        <phase duration="3"  state="Grrrrrrryyyy"/>
    </tlLogic>
    <tlLogic id="280977389" type="static" programID="0" offset="0">
        <phase duration="40" state="GGrr"/>
        <phase duration="5"  state="yyrr"/>
        <phase duration="40" state="rrGG"/>
        <phase duration="5"  state="rryy"/>
    </tlLogic>
    <tlLogic id="300416333" type="static" programID="0" offset="0">
        <phase duration="39" state="rrrGggGGg"/>
        <phase duration="6"  state="rrryyyyyy"/>
        <phase duration="39" state="GGGrrrrrr"/>
        <phase duration="6"  state="yyyrrrrrr"/>
    </tlLogic>
    <tlLogic id="300466560" type="static" programID="0" offset="0">
        <phase duration="42" state="GgrrGg"/>
        <phase duration="3"  state="yyrryy"/>
        <phase duration="42" state="rrGGrr"/>
        <phase duration="3"  state="rryyrr"/>
    </tlLogic>
    <tlLogic id="300473304" type="static" programID="0" offset="0">
        <phase duration="42" state="GGggrrrrGGgg"/>
        <phase duration="3"  state="yyyyrrrrGyyy"/>
        <phase duration="42" state="rrrrGGGgGrrr"/>
        <phase duration="3"  state="rrrryyyyGrrr"/>
    </tlLogic>
    <tlLogic id="300473847" type="static" programID="0" offset="0">
        <phase duration="18" state="GGGgGrrrrrrrrrrr"/>
        <phase duration="3"  state="yyyyGrrrrrrrrrrr"/>
        <phase duration="20" state="rrrrGGGgGrrrrrrr"/>
        <phase duration="3"  state="rrrryyyyyrrrrrrr"/>
        <phase duration="20" state="GrrrrrrrrrrrGGGg"/>
        <phase duration="3"  state="yrrrrrrrrrrrGyyy"/>
        <phase duration="20" state="rrrrrrrrGGGgGrrr"/>
        <phase duration="3"  state="rrrrrrrryyyyyrrr"/>
    </tlLogic>
    <tlLogic id="301905874" type="static" programID="0" offset="0">
        <phase duration="27" state="rrrGGgrrrGgg"/>
        <phase duration="3"  state="rrryyyrrryyy"/>
        <phase duration="27" state="rrrrrrGGGrrr"/>
        <phase duration="3"  state="rrrrrryyyrrr"/>
        <phase duration="27" state="GGgGrrrrrrrr"/>
        <phase duration="3"  state="yyyGrrrrrrrr"/>
    </tlLogic>
    <tlLogic id="3128772333" type="static" programID="0" offset="0">
        <phase duration="82" state="G"/>
        <phase duration="3"  state="y"/>
        <phase duration="5"  state="r"/>
    </tlLogic>
    <tlLogic id="3128772354" type="static" programID="0" offset="0">
        <phase duration="82" state="GG"/>
        <phase duration="3"  state="yy"/>
        <phase duration="5"  state="rr"/>
    </tlLogic>
    <tlLogic id="3128772356" type="static" programID="0" offset="0">
        <phase duration="82" state="GG"/>
        <phase duration="3"  state="yy"/>
        <phase duration="5"  state="rr"/>
    </tlLogic>
    <tlLogic id="3608489275" type="static" programID="0" offset="0">
        <phase duration="42" state="rrrGgGG"/>
        <phase duration="3"  state="rrryyyy"/>
        <phase duration="1"  state="rrrrrrr"/>
        <phase duration="41" state="GGGrrrr"/>
        <phase duration="3"  state="yyyrrrr"/>
    </tlLogic>
    <tlLogic id="4359203228" type="static" programID="0" offset="0">
        <phase duration="80" state="G"/>
        <phase duration="5"  state="y"/>
        <phase duration="5"  state="r"/>
    </tlLogic>
    <tlLogic id="436585634" type="static" programID="0" offset="0">
        <phase duration="42" state="GggrrrGGg"/>
        <phase duration="3"  state="yyyrrrGyy"/>
        <phase duration="42" state="rrrGGgGrr"/>
        <phase duration="3"  state="rrryyyGrr"/>
    </tlLogic>
    <tlLogic id="4542540359" type="static" programID="0" offset="0">
        <phase duration="42" state="GgGrr"/>
        <phase duration="3"  state="yyGrr"/>
        <phase duration="42" state="rrGGG"/>
        <phase duration="3"  state="rrGyy"/>
    </tlLogic>
    <tlLogic id="5499345354" type="static" programID="0" offset="0">
        <phase duration="82" state="G"/>
        <phase duration="3"  state="y"/>
        <phase duration="5"  state="r"/>
    </tlLogic>
    <tlLogic id="619007648" type="static" programID="0" offset="0">
        <phase duration="42" state="GGr"/>
        <phase duration="3"  state="yyr"/>
        <phase duration="42" state="rrG"/>
        <phase duration="3"  state="rry"/>
    </tlLogic>
    <tlLogic id="646742166" type="static" programID="0" offset="0">
        <phase duration="40" state="rrrrrgggggGGgggrrrrrGGGgg"/>
        <phase duration="5"  state="rrrrryyyyyyyyyyrrrrryyyyy"/>
        <phase duration="40" state="GGgggrrrrrrrrrrGGGggrrrrr"/>
        <phase duration="5"  state="yyyyyrrrrrrrrrryyyyyrrrrr"/>
    </tlLogic>
    <tlLogic id="GS_2020449152" type="static" programID="0" offset="0">
        <phase duration="42" state="Gr"/>
        <phase duration="3"  state="yr"/>
        <phase duration="42" state="rG"/>
        <phase duration="3"  state="ry"/>
    </tlLogic>
    <tlLogic id="GS_280952480" type="static" programID="0" offset="0">
        <phase duration="42" state="GGrr"/>
        <phase duration="3"  state="yyrr"/>
        <phase duration="42" state="rrGG"/>
        <phase duration="3"  state="rryy"/>
    </tlLogic>
    <tlLogic id="GS_280953498" type="static" programID="0" offset="0">
        <phase duration="39" state="GGGGrr"/>
        <phase duration="6"  state="yyyyrr"/>
        <phase duration="39" state="rrrrGG"/>
        <phase duration="6"  state="rrrryy"/>
    </tlLogic>
    <tlLogic id="GS_280973646" type="static" programID="0" offset="0">
        <phase duration="39" state="rrrrGGggrrrrGGgg"/>
        <phase duration="6"  state="rrrryyyyrrrryyyy"/>
        <phase duration="39" state="GGggrrrrGGggrrrr"/>
        <phase duration="6"  state="yyyyrrrryyyyrrrr"/>
    </tlLogic>
    <tlLogic id="GS_301921252" type="static" programID="0" offset="0">
        <phase duration="42" state="GGggrrrrGGgg"/>
        <phase duration="3"  state="yyyyrrrrGyyy"/>
        <phase duration="42" state="rrrrGGGgGrrr"/>
        <phase duration="3"  state="rrrryyyyGrrr"/>
    </tlLogic>
    <tlLogic id="GS_666474958" type="static" programID="0" offset="0">
        <phase duration="42" state="GGgGggrrr"/>
        <phase duration="3"  state="Gyyyyyrrr"/>
        <phase duration="42" state="GrrrrrGGg"/>
        <phase duration="3"  state="Grrrrryyy"/>
    </tlLogic>
    <tlLogic id="joinedS_1579684829_280980703" type="static" programID="0" offset="0">
        <phase duration="16" state="rrGGrrrGGGrrr"/>
        <phase duration="5"  state="rrGGrrryyyrrr"/>
        <phase duration="18" state="rrGGrrrrrrGGG"/>
        <phase duration="5"  state="rrGyrrrrrryyy"/>
        <phase duration="18" state="GgGrrGgGrrrrr"/>
        <phase duration="5"  state="yyGrrGgGrrrrr"/>
        <phase duration="18" state="rrGGGGgGrrrrr"/>
        <phase duration="5"  state="rrGGyyyGrrrrr"/>
    </tlLogic>
    <tlLogic id="joinedS_1584060214_2020471040_301918771" type="static" programID="0" offset="0">
        <phase duration="7"  state="GrrrGGGrrrrrrrGGrrrrrrrrrrr"/>
        <phase duration="5"  state="yrrrggGrrrrrrrgGrrrrrrrrrrr"/>
        <phase duration="8"  state="rrGGggGgrrrGrrgGGggrrrrrrrr"/>
        <phase duration="5"  state="rryyyyygrrryrryyyyyrrrrrrrr"/>
        <phase duration="8"  state="rGrrrrrGGGrrrrrrrrrrrrGGrrr"/>
        <phase duration="5"  state="rGrrrrryyyrrrrrrrrrrrrGGrrr"/>
        <phase duration="8"  state="rGrrrrrrrrGGGGrrrrrrrrGGrrr"/>
        <phase duration="5"  state="rGrrrrrrrryGyyrrrrrrrryyrrr"/>
        <phase duration="8"  state="rGGgggGgrrrGrrrrGGGrrrrrrrr"/>
        <phase duration="5"  state="rGyyggGyrrryrrrryyyrrrrrrrr"/>
        <phase duration="8"  state="rGrrGGGrrrrrrrrrrrrGGGrrrrr"/>
        <phase duration="5"  state="rGrrGGGrrrrrrrrrrrryyyrrrrr"/>
        <phase duration="8"  state="rGrrGGGrrrrrrrrrrrrrrrrrGGG"/>
        <phase duration="5"  state="ryrrGGGrrrrrrrrrrrrrrrrryyy"/>
    </tlLogic>
    <tlLogic id="joinedS_1817657771_2020441281" type="static" programID="0" offset="0">
        <phase duration="18" state="rrrrrrrGGGGrrrGGGGrrrrrrrrrr"/>
        <phase duration="3"  state="rrrrrrryyyyrrryyyyrrrrrrrrrr"/>
        <phase duration="20" state="GGGGrrrrrrrrrrrrrrrrrGGGGrrr"/>
        <phase duration="3"  state="GyyyrrrrrrrrrrrrrrrrrGyyyrrr"/>
        <phase duration="20" state="GrrrrrrrrrGGGgrrrGGGgGrrrrrr"/>
        <phase duration="3"  state="yrrrrrrrrryyyyrrryyyyyrrrrrr"/>
        <phase duration="20" state="rrrGGGgGrrrrrrGrrrrrrrrrGGGg"/>
        <phase duration="3"  state="rrryyyyGrrrrrrGrrrrrrrrryyyy"/>
    </tlLogic>
    <tlLogic id="joinedS_2364911833_280952170" type="static" programID="0" offset="0">
        <phase duration="33" state="GGGGGGgGrrrrrrrrr"/>
        <phase duration="6"  state="Gyyyyyyyrrrrrrrrr"/>
        <phase duration="33" state="GrrrrrrrrrrrrGGGg"/>
        <phase duration="6"  state="yrrrrrrrrrrrryyyy"/>
        <phase duration="6"  state="rrrrrrrGGGGGGrrrr"/>
        <phase duration="6"  state="rrrrrrrGyyyyyrrrr"/>
    </tlLogic>
    <tlLogic id="joinedS_2409105410_300334043" type="static" programID="0" offset="0">
        <phase duration="35" state="GGrrrrrrrGGGG"/>
        <phase duration="5"  state="GGrrrrrrryyyy"/>
        <phase duration="34" state="GGGrrGGGgrrrr"/>
        <phase duration="5"  state="yyGrryyyyrrrr"/>
        <phase duration="6"  state="rrGGGrrrrrrrr"/>
        <phase duration="5"  state="rryyyrrrrrrrr"/>
    </tlLogic>
    <tlLogic id="joinedS_2704362568_393466346_4716232064" type="static" programID="0" offset="0">
        <phase duration="18" state="GGrrrrrrrrGGrr"/>
        <phase duration="3"  state="yyrrrrrrrrGGrr"/>
        <phase duration="20" state="rrGGrrrrrrGGrr"/>
        <phase duration="3"  state="rryyrrrrrryyrr"/>
        <phase duration="20" state="rrrrrrrGGGrrrr"/>
        <phase duration="3"  state="rrrrrrryyyrrrr"/>
        <phase duration="20" state="rrrrGGGrrrrrGG"/>
        <phase duration="3"  state="rrrryyyrrrrryy"/>
    </tlLogic>
    <tlLogic id="joinedS_280952514_618476270" type="static" programID="0" offset="0">
        <phase duration="39" state="rrGgGGgGGgGGgg"/>
        <phase duration="6"  state="rryyyyyyyyGGgg"/>
        <phase duration="39" state="GGrrrrrrrrGGGG"/>
        <phase duration="6"  state="yyrrrrrrrrGGgg"/>
    </tlLogic>
    <tlLogic id="joinedS_393467934_393468636" type="static" programID="0" offset="0">
        <phase duration="27" state="GGGGrrrrrrGGGGrr"/>
        <phase duration="3"  state="Gyyyrrrrrryyyyrr"/>
        <phase duration="27" state="GrrrGGGgGgrrrrGr"/>
        <phase duration="3"  state="GrrryyyyyyrrrrGr"/>
        <phase duration="27" state="GGGGrrrrrrrrrrGG"/>
        <phase duration="3"  state="GGGGrrrrrrrrrryy"/>
    </tlLogic>
    <tlLogic id="joinedS_5508707406_5508707407" type="static" programID="0" offset="0">
        <phase duration="42" state="rrrrrrGGGrrrGGGrrr"/>
        <phase duration="3"  state="rrrrrryyyrrryyyrrr"/>
        <phase duration="42" state="GggGGgrrrGGgrrrGgg"/>
        <phase duration="3"  state="yyyyyyrrryyyrrryyy"/>
    </tlLogic>
    <tlLogic id="joinedS_670343210_992563360" type="static" programID="0" offset="0">
        <phase duration="39" state="rrrrrrGGGGGGGrr"/>
        <phase duration="6"  state="rrrrrryyyyyyyrr"/>
        <phase duration="39" state="GggGGgrrrrrrrGG"/>
        <phase duration="6"  state="yyyyyyrrrrrrryy"/>
    </tlLogic>
    <tlLogic id="joinedS_992563378_992563379" type="static" programID="0" offset="0">
        <phase duration="40" state="rrrGGGGrrrrrGGG"/>
        <phase duration="5"  state="rrryyyyrrrrryyy"/>
        <phase duration="40" state="GGgrrrrGggGGrrr"/>
        <phase duration="5"  state="yyyrrrryyyyyrrr"/>
    </tlLogic>

    <connection from="-108962034#0" to="-27499527#0" fromLane="0" toLane="0" tl="301905874" linkIndex="0"/>
    <connection from="-108962034#0" to="27499527#1" fromLane="0" toLane="0" tl="301905874" linkIndex="1"/>
    <connection from="-108962034#0" to="108962034#0" fromLane="0" toLane="0" tl="301905874" linkIndex="2"/>
    <connection from="-112689807" to="44221237#1" fromLane="0" toLane="0" tl="joinedS_1817657771_2020441281" linkIndex="17"/>
    <connection from="-112689807" to="-1230821487#1" fromLane="0" toLane="0" tl="joinedS_1817657771_2020441281" linkIndex="18"/>
    <connection from="-112689807" to="-44221237#0" fromLane="0" toLane="0" tl="joinedS_1817657771_2020441281" linkIndex="19"/>
    <connection from="-112689807" to="1230821487#2" fromLane="0" toLane="0" tl="joinedS_1817657771_2020441281" linkIndex="20"/>
    <connection from="-1197473899#2" to="-1230821475#0" fromLane="0" toLane="0" tl="joinedS_1817657771_2020441281" linkIndex="0"/>
    <connection from="-1197473899#2" to="-1197473899#0" fromLane="0" toLane="0" tl="joinedS_1817657771_2020441281" linkIndex="1"/>
    <connection from="-1197473899#2" to="1230821475#1" fromLane="0" toLane="0" tl="joinedS_1817657771_2020441281" linkIndex="2"/>
    <connection from="-1230373713#0" to="26810746#0" fromLane="0" toLane="0" tl="joinedS_2364911833_280952170" linkIndex="13"/>
    <connection from="-1230373713#0" to="264813438#0" fromLane="0" toLane="1" tl="joinedS_2364911833_280952170" linkIndex="14"/>
    <connection from="-1230373713#0" to="1103538215" fromLane="0" toLane="2" tl="joinedS_2364911833_280952170" linkIndex="15"/>
    <connection from="-1230373713#0" to="616065018#0" fromLane="0" toLane="0" tl="joinedS_2364911833_280952170" linkIndex="16"/>
    <connection from="-1230821477" to="1197473899#1" fromLane="0" toLane="0" tl="joinedS_1817657771_2020441281" linkIndex="3"/>
    <connection from="-1230821477" to="-1230821475#0" fromLane="0" toLane="0" tl="joinedS_1817657771_2020441281" linkIndex="4"/>
    <connection from="-1230821477" to="-1197473899#0" fromLane="0" toLane="0" tl="joinedS_1817657771_2020441281" linkIndex="5"/>
    <connection from="-1230821477" to="1230821475#1" fromLane="0" toLane="0" tl="joinedS_1817657771_2020441281" linkIndex="6"/>
    <connection from="-123896957" to="-120318551#1" fromLane="0" toLane="0" tl="1349078743" linkIndex="0"/>
    <connection from="-144430989#0" to="279550214#3" fromLane="0" toLane="0" tl="joinedS_1579684829_280980703" linkIndex="0"/>
    <connection from="-144430989#0" to="144430989#0" fromLane="0" toLane="0" tl="joinedS_1579684829_280980703" linkIndex="1"/>
    <connection from="-144778242#0" to="-875038653" fromLane="0" toLane="0" tl="1582788160" linkIndex="14"/>
    <connection from="-144778242#0" to="-144460713#2" fromLane="0" toLane="0" tl="1582788160" linkIndex="15"/>
    <connection from="-144778242#0" to="464784327" fromLane="0" toLane="1" tl="1582788160" linkIndex="16"/>
    <connection from="-144778242#0" to="144778242#0" fromLane="0" toLane="0" tl="1582788160" linkIndex="17"/>
    <connection from="-144778242#1" to="-144778242#0" fromLane="0" toLane="0" tl="1582788162" linkIndex="1"/>
    <connection from="-144778242#2" to="-144778242#1" fromLane="0" toLane="0" tl="4359720476" linkIndex="1"/>
    <connection from="-191471131#2" to="-118513381#1" fromLane="0" toLane="0" tl="GS_280973646" linkIndex="4"/>
    <connection from="-191471131#2" to="27499159#0" fromLane="0" toLane="0" tl="GS_280973646" linkIndex="5"/>
    <connection from="-191471131#2" to="25763105#0" fromLane="0" toLane="0" tl="GS_280973646" linkIndex="6"/>
    <connection from="-191471131#2" to="191471131#0" fromLane="0" toLane="0" tl="GS_280973646" linkIndex="7"/>
    <connection from="-223838341#2" to="-223838341#1" fromLane="0" toLane="0" tl="4359720459" linkIndex="0"/>
    <connection from="-223838341#3" to="-223838341#2" fromLane="0" toLane="0" tl="2326999036" linkIndex="0"/>
    <connection from="-226723080#1" to="-544731762#2" fromLane="0" toLane="0" tl="300473847" linkIndex="12"/>
    <connection from="-226723080#1" to="235595926" fromLane="0" toLane="0" tl="300473847" linkIndex="13"/>
    <connection from="-226723080#1" to="-226723080#0" fromLane="0" toLane="0" tl="300473847" linkIndex="14"/>
    <connection from="-226723080#1" to="226723080#1" fromLane="0" toLane="0" tl="300473847" linkIndex="15"/>
    <connection from="-226736459#0" to="-355247569#0" fromLane="0" toLane="0" tl="300473304" linkIndex="4"/>
    <connection from="-226736459#0" to="27371540#0" fromLane="0" toLane="0" tl="300473304" linkIndex="5"/>
    <connection from="-226736459#0" to="355247569#1" fromLane="0" toLane="0" tl="300473304" linkIndex="6"/>
    <connection from="-226736459#0" to="226736459#0" fromLane="0" toLane="0" tl="300473304" linkIndex="7"/>
    <connection from="-226737859#0" to="-464784315" fromLane="0" toLane="0" tl="2354926580" linkIndex="6"/>
    <connection from="-226737859#0" to="464784318#0" fromLane="0" toLane="0" tl="2354926580" linkIndex="7"/>
    <connection from="-226737859#0" to="226737859#0" fromLane="0" toLane="0" tl="2354926580" linkIndex="8"/>
    <connection from="-227101613#0" to="34309910" fromLane="0" toLane="0" tl="joinedS_393467934_393468636" linkIndex="8"/>
    <connection from="-227101613#0" to="227101613#0" fromLane="0" toLane="0" tl="joinedS_393467934_393468636" linkIndex="9"/>
    <connection from="-235595926" to="-226723080#0" fromLane="0" toLane="0" tl="300473847" linkIndex="4"/>
    <connection from="-235595926" to="226723080#1" fromLane="0" toLane="0" tl="300473847" linkIndex="5"/>
    <connection from="-235595926" to="-544731762#2" fromLane="0" toLane="0" tl="300473847" linkIndex="6"/>
    <connection from="-235595926" to="235595926" fromLane="0" toLane="0" tl="300473847" linkIndex="7"/>
    <connection from="-24923785" to="-27455875#2" fromLane="0" toLane="0" tl="270832181" linkIndex="0"/>
    <connection from="-24923785" to="572523147" fromLane="0" toLane="0" tl="270832181" linkIndex="1"/>
    <connection from="-24923785" to="25762788#0" fromLane="0" toLane="0" tl="270832181" linkIndex="2"/>
    <connection from="-24923785" to="24923785" fromLane="1" toLane="0" tl="270832181" linkIndex="3"/>
    <connection from="-25761373#0" to="145613212" fromLane="0" toLane="0" tl="280952384" linkIndex="6"/>
    <connection from="-25761373#0" to="145613212" fromLane="1" toLane="1" tl="280952384" linkIndex="7"/>
    <connection from="-25761373#0" to="25761373#0" fromLane="1" toLane="0" tl="280952384" linkIndex="8"/>
    <connection from="-25761373#3" to="-25761373#2" fromLane="0" toLane="0" tl="joinedS_280952514_618476270" linkIndex="10"/>
    <connection from="-25761373#3" to="-25761373#2" fromLane="1" toLane="1" tl="joinedS_280952514_618476270" linkIndex="11"/>
    <connection from="-25761373#3" to="48720536#0" fromLane="1" toLane="0" tl="joinedS_280952514_618476270" linkIndex="12"/>
    <connection from="-25761373#3" to="25761373#3" fromLane="1" toLane="0" tl="joinedS_280952514_618476270" linkIndex="13"/>
    <connection from="-25761411#0" to="283236570" fromLane="0" toLane="0" tl="280714346" linkIndex="0"/>
    <connection from="-25761411#0" to="25761411#0" fromLane="0" toLane="0" tl="280714346" linkIndex="1"/>
    <connection from="-25762788#0" to="24923785" fromLane="0" toLane="0" tl="270832181" linkIndex="4"/>
    <connection from="-25762788#0" to="-27455875#2" fromLane="1" toLane="1" tl="270832181" linkIndex="5"/>
    <connection from="-25762788#0" to="572523147" fromLane="1" toLane="0" tl="270832181" linkIndex="6"/>
    <connection from="-25762788#0" to="25762788#0" fromLane="1" toLane="0" tl="270832181" linkIndex="7"/>
    <connection from="-25763105#12" to="189302897#0" fromLane="0" toLane="0" tl="GS_301921252" linkIndex="0"/>
    <connection from="-25763105#12" to="-25763105#9" fromLane="0" toLane="0" tl="GS_301921252" linkIndex="1"/>
    <connection from="-25763105#12" to="-27500661#10" fromLane="0" toLane="0" tl="GS_301921252" linkIndex="2"/>