<edges xmlns:xsi="http://www.w3.org/2001/XMLSchema-instance" version="1.20" xsi:noNamespaceSchemaLocation="http://sumo.dlr.de/xsd/edges_file.xsd">
    <location netOffset="-468277.84,-5368862.63" convBoundary="0.00,0.00,12874.05,11266.70" origBoundary="2.570406,48.472341,4.272917,48.852436" projParameter="+proj=utm +zone=31 +ellps=WGS84 +datum=WGS84 +units=m +no_defs" />

    <edge id="-1000499898#0" from="9235261207" to="9235261209" priority="3" type="highway.residential" numLanes="1" speed="13.89" disallow="tram rail_urban rail rail_electric rail_fast ship container cable_car subway aircraft wheelchair scooter drone" />
    <edge id="-1000499898#1" from="9873201653" to="9235261207" priority="3" type="highway.residential" numLanes="1" speed="13.89" disallow="tram rail_urban rail rail_electric rail_fast ship container cable_car subway aircraft wheelchair scooter drone" />
    <edge id="-1000499898#2" from="9873174777" to="9873201653" priority="3" type="highway.residential" numLanes="1" speed="13.89" shape="3981.72,7305.48 4009.96,7321.23 4014.59,7323.77" disallow="tram rail_urban rail rail_electric rail_fast ship container cable_car subway aircraft wheelchair scooter drone" />
    <edge id="-1000499898#3" from="9873272299" to="9873174777" priority="3" type="highway.residential" numLanes="1" speed="13.89" shape="3919.68,7269.91 3921.46,7270.92 3948.41,7286.00 3981.72,7305.48" disallow="tram rail_urban rail rail_electric rail_fast ship container cable_car subway aircraft wheelchair scooter drone" />
    <edge id="-1000499898#4" from="9873272296" to="9873272299" priority="3" type="highway.residential" numLanes="1" speed="13.89" disallow="tram rail_urban rail rail_electric rail_fast ship container cable_car subway aircraft wheelchair scooter drone" />
    <edge id="-1000499898#5" from="9873174769" to="9873272296" priority="3" type="highway.residential" numLanes="1" speed="13.89" shape="3891.98,7255.55 3896.05,7256.49 3910.54,7264.72" disallow="tram rail_urban rail rail_electric rail_fast ship container cable_car subway aircraft wheelchair scooter drone" />
    <edge id="-1000499898#6" from="9873174771" to="9873174769" priority="3" type="highway.residential" numLanes="1" speed="13.89" disallow="tram rail_urban rail rail_electric rail_fast ship container cable_car subway aircraft wheelchair scooter drone" />
    <edge id="-1002806971" from="9254649657" to="9254649649" priority="3" type="highway.residential" numLanes="1" speed="13.89" shape="4452.02,7003.46 4463.87,7004.15 4471.58,7002.84 4503.20,6987.88 4520.98,6979.50 4528.18,6975.32 4529.74,6970.38 4530.50,6962.08 4530.24,6949.74" disallow="tram rail_urban rail rail_electric rail_fast ship container cable_car subway aircraft wheelchair scooter drone" />
    <edge id="-1006837146#0" from="168807528" to="248736699" priority="12" type="highway.primary" numLanes="1" speed="22.22" disallow="tram rail_urban rail rail_electric rail_fast ship container cable_car subway aircraft wheelchair scooter drone">
        <param key="ref" value="D 142" />
    </edge>
    <edge id="-1006837146#1" from="2161230134" to="168807528" priority="12" type="highway.primary" numLanes="1" speed="22.22" shape="3981.87,3144.35 3719.11,3291.11 3408.69,3463.98 3255.96,3549.89 3090.20,3642.75 3056.01,3658.07" disallow="tram rail_urban rail rail_electric rail_fast ship container cable_car subway aircraft wheelchair scooter drone">
        <param key="ref" value="D 142" />
    </edge>
    <edge id="-1006837146#2" from="9228273318" to="2161230134" priority="12" type="highway.primary" numLanes="1" speed="22.22" shape="4521.96,2843.63 4111.07,3072.53 3981.87,3144.35" disallow="tram rail_urban rail rail_electric rail_fast ship container cable_car subway aircraft wheelchair scooter drone">
        <param key="ref" value="D 142" />
    </edge>
    <edge id="-1015928377" from="5216186774" to="300475950" priority="3" type="highway.residential" numLanes="1" speed="13.89" disallow="tram rail_urban rail rail_electric rail_fast ship container cable_car subway aircraft wheelchair scooter drone" />
    <edge id="-1015928378#0" from="5216186775" to="5216186774" priority="3" type="highway.residential" numLanes="1" speed="13.89" disallow="tram rail_urban rail rail_electric rail_fast ship container cable_car subway aircraft wheelchair scooter drone" />
    <edge id="-1015928378#1" from="7554062689" to="5216186775" priority="3" type="highway.residential" numLanes="1" speed="13.89" disallow="tram rail_urban rail rail_electric rail_fast ship container cable_car subway aircraft wheelchair scooter drone" />
    <edge id="-1015928378#2" from="300475884" to="7554062689" priority="3" type="highway.residential" numLanes="1" speed="13.89" shape="5071.13,5410.24 5075.33,5408.08 5086.38,5403.78" disallow="tram rail_urban rail rail_electric rail_fast ship container cable_car subway aircraft wheelchair scooter drone" />
    <edge id="-1015928378#3" from="2257626098" to="300475884" priority="3" type="highway.residential" numLanes="1" speed="13.89" shape="5057.55,5430.18 5062.28,5423.01 5067.72,5414.37 5071.13,5410.24" disallow="tram rail_urban rail rail_electric rail_fast ship container cable_car subway aircraft wheelchair scooter drone" />
    <edge id="-1015928378#4" from="8310702985" to="2257626098" priority="3" type="highway.residential" numLanes="1" speed="13.89" shape="5032.73,5467.25 5052.49,5437.73 5057.55,5430.18" disallow="tram rail_urban rail rail_electric rail_fast ship container cable_car subway aircraft wheelchair scooter drone" />
    <edge id="-1015928378#5" from="2199918439" to="8310702985" priority="3" type="highway.residential" numLanes="1" speed="13.89" disallow="tram rail_urban rail rail_electric rail_fast ship container cable_car subway aircraft wheelchair scooter drone" />
    <edge id="-1015928385" from="288852776" to="7554062614" priority="12" type="highway.primary" numLanes="2" speed="13.89" shape="5633.38,6018.23 5610.65,6006.01 5588.78,5994.75" disallow="tram rail_urban rail rail_electric rail_fast ship container cable_car subway aircraft wheelchair scooter drone">
        <param key="ref" value="D 372" />
    </edge>
    <edge id="-1015928386" from="7554062614" to="2607612923" priority="12" type="highway.primary" numLanes="2" speed="13.89" disallow="tram rail_urban rail rail_electric rail_fast ship container cable_car subway aircraft wheelchair scooter drone">
        <param key="ref" value="D 372" />
    </edge>
    <edge id="-1015928387" from="6581962524" to="288852776" priority="12" type="highway.primary" numLanes="2" speed="13.89" disallow="tram rail_urban rail rail_electric rail_fast ship container cable_car subway aircraft wheelchair scooter drone">
        <param key="ref" value="D 372" />
    </edge>
    <edge id="-1015928388" from="2607612921" to="6581962524" priority="12" type="highway.primary" numLanes="2" speed="13.89" disallow="tram rail_urban rail rail_electric rail_fast ship container cable_car subway aircraft wheelchair scooter drone">
        <param key="ref" value="D 372" />
    </edge>
    <edge id="-1015928389#0" from="2607612968" to="2607612921" priority="12" type="highway.primary" numLanes="2" speed="13.89" shape="5700.15,6053.65 5673.34,6038.44 5659.43,6031.86" disallow="tram rail_urban rail rail_electric rail_fast ship container cable_car subway aircraft wheelchair scooter drone">
        <param key="ref" value="D 372" />
    </edge>
    <edge id="-1015928389#1" from="2607612925" to="2607612968" priority="12" type="highway.primary" numLanes="2" speed="13.89" shape="5748.03,6078.62 5724.02,6066.32 5700.15,6053.65" disallow="tram rail_urban rail rail_electric rail_fast ship container cable_car subway aircraft wheelchair scooter drone">
        <param key="ref" value="D 372" />
    </edge>
    <edge id="-1015928389#2" from="270832203" to="2607612925" priority="12" type="highway.primary" numLanes="2" speed="13.89" shape="5813.89,6113.54 5780.94,6096.28 5748.03,6078.62" disallow="tram rail_urban rail rail_electric rail_fast ship container cable_car subway aircraft wheelchair scooter drone">
        <param key="ref" value="D 372" />
    </edge>
    <edge id="-1015928396" from="9370817409" to="9370817410" priority="4" type="highway.unclassified" numLanes="1" speed="13.89" disallow="tram rail_urban rail rail_electric rail_fast ship container cable_car subway aircraft wheelchair scooter drone" />
    <edge id="-1015928411#0" from="8526321546" to="3247115194" priority="3" type="highway.residential" numLanes="1" speed="13.89" shape="5426.79,5777.74 5416.49,5791.31 5403.05,5808.60" disallow="tram rail_urban rail rail_electric rail_fast ship container cable_car subway aircraft wheelchair scooter drone" />
    <edge id="-1015928411#1" from="300475244" to="8526321546" priority="3" type="highway.residential" numLanes="1" speed="13.89" shape="5441.93,5757.71 5434.20,5768.08 5426.79,5777.74" disallow="tram rail_urban rail rail_electric rail_fast ship container cable_car subway aircraft wheelchair scooter drone" />
    <edge id="-1016878700#1" from="2020470978" to="2020449179" priority="11" type="highway.secondary" numLanes="1" speed="27.78" shape="6070.84,8045.17 6062.80,8051.07 6043.14,8076.72 6024.93,8101.32" disallow="tram rail_urban rail rail_electric rail_fast ship container cable_car subway aircraft wheelchair scooter drone">
        <param key="ref" value="D 413" />
    </edge>
    <edge id="-1024521824" from="2821972170" to="561634842" priority="11" type="highway.secondary" numLanes="1" speed="8.33" shape="1270.83,6073.49 1267.95,6075.46 1259.26,6079.17 1247.16,6083.53 1228.13,6094.34 1161.11,6120.17" disallow="tram rail_urban rail rail_electric rail_fast ship container cable_car subway aircraft wheelchair scooter drone">
        <param key="ref" value="D 39" />
    </edge>
    <edge id="-1024521825" from="9447248719" to="571955229" priority="11" type="highway.secondary" numLanes="1" speed="13.89" shape="1854.10,5902.08 1793.05,5903.85 1780.46,5905.59" disallow="tram rail_urban rail rail_electric rail_fast ship container cable_car subway aircraft wheelchair scooter drone">
        <param key="ref" value="D 39" />
    </edge>
    <edge id="-1024521827#0" from="670118578" to="561620514" priority="11" type="highway.secondary" numLanes="1" speed="19.44" shape="2842.49,6508.65 2820.65,6499.23 2757.09,6477.75" disallow="tram rail_urban rail rail_electric rail_fast ship container cable_car subway aircraft wheelchair scooter drone">
        <param key="ref" value="D 39" />
    </edge>
    <edge id="-1024521827#1" from="9447248720" to="670118578" priority="11" type="highway.secondary" numLanes="1" speed="19.44" shape="2906.67,6537.57 2878.99,6524.15 2842.49,6508.65" disallow="tram rail_urban rail rail_electric rail_fast ship container cable_car subway aircraft wheelchair scooter drone">
        <param key="ref" value="D 39" />
    </edge>
    <edge id="-1024521828" from="9447248721" to="1817788483" priority="11" type="highway.secondary" numLanes="1" speed="22.22" disallow="tram rail_urban rail rail_electric rail_fast ship container cable_car subway aircraft wheelchair scooter drone">
        <param key="ref" value="D 39" />
    </edge>
    <edge id="-1030593307#0" from="3336306162" to="670343118" priority="3" type="highway.residential" numLanes="1" speed="13.89" disallow="tram rail_urban rail rail_electric rail_fast ship container cable_car subway aircraft wheelchair scooter drone" />
    <edge id="-1030593307#1" from="3300065844" to="3336306162" priority="3" type="highway.residential" numLanes="1" speed="13.89" disallow="tram rail_urban rail rail_electric rail_fast ship container cable_car subway aircraft wheelchair scooter drone" />
    <edge id="-1030593307#2" from="670118894" to="3300065844" priority="3" type="highway.residential" numLanes="1" speed="13.89" shape="4613.08,8740.75 4621.88,8740.27 4632.32,8739.70" disallow="tram rail_urban rail rail_electric rail_fast ship container cable_car subway aircraft wheelchair scooter drone" />
    <edge id="-103163540" from="1191164669" to="496104990" priority="3" type="highway.residential" numLanes="1" speed="13.89" shape="8086.78,5704.31 8083.10,5729.84 8080.60,5742.93" disallow="tram rail_urban rail rail_electric rail_fast ship container cable_car subway aircraft wheelchair scooter drone" />
    <edge id="-103163541" from="1191164687" to="1191164690" priority="3" type="highway.residential" numLanes="1" speed="13.89" shape="8160.72,5164.61 8160.77,5174.99 8148.10,5176.62 8148.06,5166.35" disallow="tram rail_urban rail rail_electric rail_fast ship container cable_car subway aircraft wheelchair scooter drone" />
    <edge id="-103163542" from="1581214949" to="1191164700" priority="3" type="highway.residential" numLanes="1" speed="13.89" shape="7966.98,5537.92 7957.39,5514.40 7947.14,5478.50 7924.71,5394.30 7907.38,5347.64 7883.79,5295.93 7880.27,5283.38 7883.59,5202.22" disallow="tram rail_urban rail rail_electric rail_fast ship container cable_car subway aircraft wheelchair scooter drone" />
    <edge id="-103163543#0" from="9705957088" to="496098557" priority="3" type="highway.residential" numLanes="1" speed="13.89" shape="8062.88,5454.66 8075.18,5441.03 8082.50,5435.93" disallow="tram rail_urban rail rail_electric rail_fast ship container cable_car subway aircraft wheelchair scooter drone" />
    <edge id="-103163543#1" from="1191164705" to="9705957088" priority="3" type="highway.residential" numLanes="1" speed="13.89" disallow="tram rail_urban rail rail_electric rail_fast ship container cable_car subway aircraft wheelchair scooter drone" />
    <edge id="-103163543#2" from="1581214946" to="1191164705" priority="3" type="highway.residential" numLanes="1" speed="13.89" disallow="tram rail_urban rail rail_electric rail_fast ship container cable_car subway aircraft wheelchair scooter drone" />
    <edge id="-103163543#3" from="11411659590" to="1581214946" priority="3" type="highway.residential" numLanes="1" speed="13.89" shape="7982.03,5721.14 7984.40,5717.97 7986.45,5711.65 7987.56,5704.14 7987.48,5697.03 7986.89,5690.75 7980.15,5655.77 7974.63,5624.09 7970.16,5555.73" disallow="tram rail_urban rail rail_electric rail_fast ship container cable_car subway aircraft wheelchair scooter drone" />
    <edge id="-103163544#0" from="7011024191" to="1581214946" priority="3" type="highway.residential" numLanes="1" speed="13.89" shape="8097.67,5611.80 8088.48,5586.36 8079.16,5577.95 8007.00,5559.31 7970.16,5555.73" disallow="tram rail_urban rail rail_electric rail_fast ship container cable_car subway aircraft wheelchair scooter drone" />
    <edge id="-103163544#1" from="1191164669" to="7011024191" priority="3" type="highway.residential" numLanes="1" speed="13.89" shape="8086.78,5704.31 8097.52,5631.99 8097.67,5611.80" disallow="tram rail_urban rail rail_electric rail_fast ship container cable_car subway aircraft wheelchair scooter drone" />
    <edge id="-1037423851#0" from="2607613020" to="9370817409" priority="4" type="highway.unclassified" numLanes="1" speed="13.89" shape="5493.21,6090.75 5527.38,6124.20 5541.20,6136.87" disallow="tram rail_urban rail rail_electric rail_fast ship container cable_car subway aircraft wheelchair scooter drone" />
    <edge id="-1037423851#1" from="2607612970" to="2607613020" priority="4" type="highway.unclassified" numLanes="1" speed="13.89" shape="5425.38,6018.94 5468.74,6065.94 5493.21,6090.75" disallow="tram rail_urban rail rail_electric rail_fast ship container cable_car subway aircraft wheelchair scooter drone" />
    <edge id="-1037423851#2" from="1705255466" to="2607612970" priority="4" type="highway.unclassified" numLanes="1" speed="13.89" disallow="tram rail_urban rail rail_electric rail_fast ship container cable_car subway aircraft wheelchair scooter drone" />
    <edge id="-1037520349" from="401313189" to="9557539094" priority="3" type="highway.residential" numLanes="1" speed="13.89" shape="7514.66,9066.80 7501.92,9070.90 7495.43,9074.06 7485.50,9081.80 7476.91,9091.50" disallow="tram rail_urban rail rail_electric rail_fast ship container cable_car subway aircraft wheelchair scooter drone" />
    <edge id="-1044303834" from="401320874" to="9609377684" priority="3" type="highway.residential" numLanes="1" speed="13.89" shape="9560.26,8668.19 9524.73,8662.96 9517.58,8657.36 9515.76,8647.20" disallow="tram rail_urban rail rail_electric rail_fast ship container cable_car subway aircraft wheelchair scooter drone" />
    <edge id="-1051179394" from="11800122919" to="8526350447" priority="3" type="highway.residential" numLanes="1" speed="13.89" disallow="tram rail_urban rail rail_electric rail_fast ship container cable_car subway aircraft wheelchair scooter drone" />
    <edge id="-1056276208" from="4525102648" to="4525102647" priority="3" type="highway.residential" numLanes="1" speed="13.89" disallow="tram rail_urban rail rail_electric rail_fast ship container cable_car subway aircraft wheelchair scooter drone" />
    <edge id="-1056276216" from="4525103018" to="9705693876" priority="3" type="highway.residential" numLanes="1" speed="13.89" shape="6565.78,9518.48 6576.40,9547.01 6495.86,9576.28 6489.60,9545.82" disallow="tram rail_urban rail rail_electric rail_fast ship container cable_car subway aircraft wheelchair scooter drone" />
    <edge id="-1056276239" from="5931257497" to="301909986" priority="3" type="highway.residential" numLanes="1" speed="13.89" shape="7213.82,8574.47 7231.77,8606.13 7235.52,8612.88" disallow="tram rail_urban rail rail_electric rail_fast ship container cable_car subway aircraft wheelchair scooter drone" />
    <edge id="-1056277621#0" from="2027224195" to="315372517" priority="3" type="highway.residential" numLanes="1" speed="13.89" disallow="tram rail_urban rail rail_electric rail_fast ship container cable_car subway aircraft wheelchair scooter drone" />
    <edge id="-1056277621#1" from="670099024" to="2027224195" priority="3" type="highway.residential" numLanes="1" speed="13.89" disallow="tram rail_urban rail rail_electric rail_fast ship container cable_car subway aircraft wheelchair scooter drone" />
    <edge id="-1056293008" from="6979221839" to="6979221837" priority="4" type="highway.unclassified" numLanes="1" speed="13.89" shape="8705.06,6369.35 8691.14,6376.03 8597.31,6383.71" disallow="tram rail_urban rail rail_electric rail_fast ship container cable_car subway aircraft wheelchair scooter drone" />
    <edge id="-1056297672" from="9705862965" to="1840551082" priority="3" type="highway.residential" numLanes="1" speed="13.89" shape="7712.02,6379.02 7749.69,6389.72 7756.15,6394.43 7759.86,6397.06" disallow="tram rail_urban rail rail_electric rail_fast ship container cable_car subway aircraft wheelchair scooter drone" />
    <edge id="-1056302152#0" from="9705932611" to="9705932612" priority="3" type="highway.residential" numLanes="1" speed="13.89" disallow="tram rail_urban rail rail_electric rail_fast ship container cable_car subway aircraft wheelchair scooter drone" />
    <edge id="-1056302152#1" from="9705932610" to="9705932611" priority="3" type="highway.residential" numLanes="1" speed="13.89" disallow="tram rail_urban rail rail_electric rail_fast ship container cable_car subway aircraft wheelchair scooter drone" />
    <edge id="-1056302153#0" from="9705932612" to="496110975" priority="3" type="highway.residential" numLanes="1" speed="13.89" disallow="tram rail_urban rail rail_electric rail_fast ship container cable_car subway aircraft wheelchair scooter drone" />
    <edge id="-1056302153#1" from="9705932613" to="9705932612" priority="3" type="highway.residential" numLanes="1" speed="13.89" disallow="tram rail_urban rail rail_electric rail_fast ship container cable_car subway aircraft wheelchair scooter drone" />
    <edge id="-1057029377#0" from="9712623831" to="9712623835" priority="3" type="highway.residential" numLanes="1" speed="13.89" shape="2998.75,5442.36 3020.44,5443.93 3032.08,5435.28 3035.05,5433.29 3046.11,5433.20 3048.93,5433.18" disallow="tram rail_urban rail rail_electric rail_fast ship container cable_car subway aircraft wheelchair scooter drone" />
    <edge id="-1057029377#1" from="9712623829" to="9712623831" priority="3" type="highway.residential" numLanes="1" speed="13.89" shape="2970.35,5487.13 2993.54,5489.38 2997.50,5453.66 2998.75,5442.36" disallow="tram rail_urban rail rail_electric rail_fast ship container cable_car subway aircraft wheelchair scooter drone" />
    <edge id="-1057111220" from="9713390653" to="676361887" priority="3" type="highway.residential" numLanes="1" speed="13.89" shape="4141.33,7887.48 4179.06,7850.62 4182.09,7847.20" disallow="tram rail_urban rail rail_electric rail_fast ship container cable_car subway aircraft wheelchair scooter drone" />
    <edge id="-1059338004#0" from="9733106264" to="9733106265" priority="3" type="highway.residential" numLanes="1" speed="13.89" shape="6561.46,8646.57 6577.48,8701.87 6578.31,8706.08 6578.26,8710.22 6578.12,8711.69 6577.28,8714.65" disallow="tram rail_urban rail rail_electric rail_fast ship container cable_car subway aircraft wheelchair scooter drone" />
    <edge id="-1059338004#1" from="9733106270" to="9733106264" priority="3" type="highway.residential" numLanes="1" speed="13.89" shape="6567.23,8624.15 6561.08,8641.65 6561.46,8646.57" disallow="tram rail_urban rail rail_electric rail_fast ship container cable_car subway aircraft wheelchair scooter drone" />
    <edge id="-1059338004#2" from="9733106249" to="9733106270" priority="3" type="highway.residential" numLanes="1" speed="13.89" shape="6538.50,8551.04 6555.10,8567.17 6559.54,8574.39 6565.61,8594.75 6568.29,8605.65 6568.92,8615.90 6567.23,8624.15" disallow="tram rail_urban rail rail_electric rail_fast ship container cable_car subway aircraft wheelchair scooter drone" />
    <edge id="-1059338004#3" from="280981019" to="9733106249" priority="3" type="highway.residential" numLanes="1" speed="13.89" shape="6508.38,8509.66 6510.37,8512.60 6512.84,8515.90 6526.86,8536.45 6533.32,8545.05 6538.50,8551.04" disallow="tram rail_urban rail rail_electric rail_fast ship container cable_car subway aircraft wheelchair scooter drone" />
    <edge id="-1063350710#0" from="1835761929" to="9767747611" priority="3" type="highway.residential" numLanes="1" speed="13.89" disallow="tram rail_urban rail rail_electric rail_fast ship container cable_car subway aircraft wheelchair scooter drone" />
    <edge id="-1063350710#1" from="9767747609" to="1835761929" priority="3" type="highway.residential" numLanes="1" speed="13.89" shape="4026.93,4501.10 4032.98,4504.73 4047.54,4519.00" disallow="tram rail_urban rail rail_electric rail_fast ship container cable_car subway aircraft wheelchair scooter drone" />
    <edge id="-1063350712#0" from="9767747612" to="301471821" priority="3" type="highway.residential" numLanes="1" speed="8.33" shape="4085.07,4694.83 4091.46,4697.05 4097.43,4697.64" disallow="tram rail_urban rail rail_electric rail_fast ship container cable_car subway aircraft wheelchair scooter drone" />
    <edge id="-1063350712#1" from="9767775618" to="9767747612" priority="3" type="highway.residential" numLanes="1" speed="8.33" shape="4036.04,4689.08 4055.51,4685.48 4085.07,4694.83" disallow="tram rail_urban rail rail_electric rail_fast ship container cable_car subway aircraft wheelchair scooter drone" />
    <edge id="-1063350712#2" from="9767747616" to="9767775618" priority="3" type="highway.residential" numLanes="1" speed="8.33" shape="4037.33,4725.71 4038.78,4717.52 4036.04,4689.08" disallow="tram rail_urban rail rail_electric rail_fast ship container cable_car subway aircraft wheelchair scooter drone" />
    <edge id="-1063350717" from="1840495996" to="1580149387" priority="3" type="highway.residential" numLanes="1" speed="8.33" shape="4797.96,4832.76 4793.05,4838.24 4784.99,4853.40 4785.39,4875.56 4791.32,4922.47 4791.87,4925.01" disallow="tram rail_urban rail rail_electric rail_fast ship container cable_car subway aircraft wheelchair scooter drone" />
    <edge id="-1063350755" from="9767775747" to="2156469520" priority="3" type="highway.residential" numLanes="1" speed="13.89" disallow="tram rail_urban rail rail_electric rail_fast ship container cable_car subway aircraft wheelchair scooter drone" />
    <edge id="-1064052745" from="9772862010" to="9772862012" priority="3" type="highway.residential" numLanes="1" speed="13.89" shape="8416.30,4917.96 8411.97,4923.01 8410.95,4967.14" disallow="tram rail_urban rail rail_electric rail_fast ship container cable_car subway aircraft wheelchair scooter drone" />
    <edge id="-1069228625" from="11758735579" to="496113419" priority="3" type="highway.residential" numLanes="1" speed="13.89" shape="9405.45,5556.18 9393.27,5560.88 9335.99,5568.00 9318.03,5567.73 9313.01,5565.92" disallow="tram rail_urban rail rail_electric rail_fast ship container cable_car subway aircraft wheelchair scooter drone" />
    <edge id="-107085835" from="760689768" to="1231146786" priority="3" type="highway.residential" numLanes="1" speed="13.89" width="2.50" disallow="tram rail_urban rail rail_electric rail_fast ship container cable_car subway aircraft wheelchair scooter drone" />
    <edge id="-107085836" from="1231146875" to="760689807" priority="3" type="highway.residential" numLanes="1" speed="13.89" width="2.50" disallow="tram rail_urban rail rail_electric rail_fast ship container cable_car subway aircraft wheelchair scooter drone" />
    <edge id="-107085837" from="1231146976" to="1231146881" priority="3" type="highway.residential" numLanes="1" speed="13.89" disallow="tram rail_urban rail rail_electric rail_fast ship container cable_car subway aircraft wheelchair scooter drone" />
    <edge id="-107085838#0" from="8175100600" to="1231146982" priority="3" type="highway.residential" numLanes="1" speed="13.89" shape="1783.47,9420.26 1785.50,9421.83 1787.98,9422.52 1790.53,9422.19 1792.77,9420.92 1794.35,9418.90 1795.03,9416.41 1794.70,9413.87 1793.43,9411.64" width="2.50" disallow="tram rail_urban rail rail_electric rail_fast ship container cable_car subway aircraft wheelchair scooter drone" />
    <edge id="-107085838#1" from="1231146982" to="8175100600" priority="3" type="highway.residential" numLanes="1" speed="13.89" shape="1793.43,9411.64 1791.40,9410.07 1788.92,9409.40 1786.36,9409.71 1784.13,9410.99 1782.55,9413.01 1781.87,9415.49 1782.20,9418.04 1783.47,9420.26" width="2.50" disallow="tram rail_urban rail rail_electric rail_fast ship container cable_car subway aircraft wheelchair scooter drone" />
    <edge id="-107085839" from="1231146930" to="1231147030" priority="3" type="highway.residential" numLanes="1" speed="13.89" disallow="tram rail_urban rail rail_electric rail_fast ship container cable_car subway aircraft wheelchair scooter drone" />
    <edge id="-107085840#0" from="1231146631" to="426022948" priority="3" type="highway.residential" numLanes="1" speed="13.89" shape="1834.36,8565.29 1825.63,8527.92 1815.32,8513.51 1805.33,8509.92 1793.46,8509.67 1774.85,8511.53 1770.09,8511.94" disallow="tram rail_urban rail rail_electric rail_fast ship container cable_car subway aircraft wheelchair scooter drone" />
    <edge id="-107085840#1" from="1231146787" to="1231146631" priority="3" type="highway.residential" numLanes="1" speed="13.89" disallow="tram rail_urban rail rail_electric rail_fast ship container cable_car subway aircraft wheelchair scooter drone" />
    <edge id="-107085840#2" from="1231146895" to="1231146787" priority="3" type="highway.residential" numLanes="1" speed="13.89" disallow="tram rail_urban rail rail_electric rail_fast ship container cable_car subway aircraft wheelchair scooter drone" />
    <edge id="-107085840#3" from="426022954" to="1231146895" priority="3" type="highway.residential" numLanes="1" speed="13.89" shape="1811.79,8684.51 1815.48,8681.53 1841.00,8660.90 1847.14,8653.53 1850.17,8644.85 1850.17,8632.82 1842.57,8600.32" disallow="tram rail_urban rail rail_electric rail_fast ship container cable_car subway aircraft wheelchair scooter drone" />
    <edge id="-107085842#0" from="1231146615" to="1231146649" priority="3" type="highway.residential" numLanes="1" speed="13.89" width="3.00" disallow="tram rail_urban rail rail_electric rail_fast ship container cable_car subway aircraft wheelchair scooter drone" />
    <edge id="-107085842#1" from="1231147014" to="1231146615" priority="3" type="highway.residential" numLanes="1" speed="13.89" width="3.00" disallow="tram rail_urban rail rail_electric rail_fast ship container cable_car subway aircraft wheelchair scooter drone" />
    <edge id="-107085842#2" from="1231146798" to="1231147014" priority="3" type="highway.residential" numLanes="1" speed="13.89" width="3.00" disallow="tram rail_urban rail rail_electric rail_fast ship container cable_car subway aircraft wheelchair scooter drone" />
    <edge id="-107085843" from="1231147050" to="1231146611" priority="3" type="highway.residential" numLanes="1" speed="13.89" width="2.50" disallow="tram rail_urban rail rail_electric rail_fast ship container cable_car subway aircraft wheelchair scooter drone" />
    <edge id="-107085844" from="1231146928" to="1231146724" priority="3" type="highway.residential" numLanes="1" speed="13.89" disallow="tram rail_urban rail rail_electric rail_fast ship container cable_car subway aircraft wheelchair scooter drone" />
    <edge id="-107085845" from="1231147095" to="1231146627" priority="3" type="highway.residential" numLanes="1" speed="13.89" width="2.50" disallow="tram rail_urban rail rail_electric rail_fast ship container cable_car subway aircraft wheelchair scooter drone" />