<edges xmlns:xsi="http://www.w3.org/2001/XMLSchema-instance" version="1.20" xsi:noNamespaceSchemaLocation="http://sumo.dlr.de/xsd/edges_file.xsd">
    <location netOffset="-415604.09,-5420850.19" convBoundary="0.00,0.00,11476.14,10704.58" origBoundary="1.815749,48.935914,2.003374,49.031655" projParameter="+proj=utm +zone=31 +ellps=WGS84 +datum=WGS84 +units=m +no_defs" />

    <edge id="-1005516397" from="619156150" to="619156096" priority="4" type="highway.unclassified" numLanes="1" speed="13.89" shape="5311.10,8019.69 5295.93,8029.30 5285.74,8033.02 5277.72,8035.93 5261.80,8039.77 5245.64,8041.53 5234.59,8046.71 5224.27,8057.43 5213.70,8064.47 5175.72,8082.13 5155.21,8090.17 5130.09,8099.17 5100.37,8113.33" disallow="tram rail_urban rail rail_electric rail_fast ship container cable_car subway aircraft wheelchair scooter drone" />
    <edge id="-1005516406#0" from="2214912643" to="3729524626" priority="3" type="highway.residential" numLanes="1" speed="13.89" shape="5439.74,7939.41 5436.64,7940.91 5433.95,7941.64 5429.98,7941.63 5420.59,7940.28 5407.75,7938.02 5398.76,7936.88 5385.07,7936.14 5372.07,7936.02 5358.53,7936.52 5355.90,7936.59" disallow="tram rail_urban rail rail_electric rail_fast ship container cable_car subway aircraft wheelchair scooter drone" />
    <edge id="-1026653331#0" from="4920616351" to="456815973" priority="10" type="highway.tertiary" numLanes="1" speed="8.33" disallow="tram rail_urban rail rail_electric rail_fast ship container cable_car subway aircraft wheelchair scooter drone" />
    <edge id="-1026653331#1" from="11862798888" to="4920616351" priority="10" type="highway.tertiary" numLanes="1" speed="8.33" disallow="tram rail_urban rail rail_electric rail_fast ship container cable_car subway aircraft wheelchair scooter drone" />
    <edge id="-1026653331#2" from="538418804" to="11862798888" priority="10" type="highway.tertiary" numLanes="1" speed="8.33" disallow="tram rail_urban rail rail_electric rail_fast ship container cable_car subway aircraft wheelchair scooter drone" />
    <edge id="-1026653332" from="442019079" to="9465660038" priority="3" type="highway.residential" numLanes="1" speed="8.33" disallow="tram rail_urban rail rail_electric rail_fast ship container cable_car subway aircraft wheelchair scooter drone" />
    <edge id="-1026653333" from="9465660039" to="457351456" priority="10" type="highway.tertiary" numLanes="1" speed="11.11" shape="7808.80,8628.22 7816.69,8624.78 7833.55,8615.84" disallow="tram rail_urban rail rail_electric rail_fast ship container cable_car subway aircraft wheelchair scooter drone" />
    <edge id="-1026653334#0" from="456815938" to="456815934" priority="10" type="highway.tertiary" numLanes="1" speed="8.33" disallow="tram rail_urban rail rail_electric rail_fast ship container cable_car subway aircraft wheelchair scooter drone" />
    <edge id="-1026653334#1" from="2927179856" to="456815938" priority="10" type="highway.tertiary" numLanes="1" speed="8.33" shape="7255.03,8611.69 7259.63,8617.15 7261.93,8620.08" disallow="tram rail_urban rail rail_electric rail_fast ship container cable_car subway aircraft wheelchair scooter drone" />
    <edge id="-1026653334#2" from="456976452" to="2927179856" priority="10" type="highway.tertiary" numLanes="1" speed="8.33" shape="7029.30,8533.94 7036.57,8534.00 7164.76,8561.69 7188.08,8567.68 7208.20,8575.03 7220.74,8581.31 7228.33,8585.95 7255.03,8611.69" disallow="tram rail_urban rail rail_electric rail_fast ship container cable_car subway aircraft wheelchair scooter drone" />
    <edge id="-1026653334#3" from="9465660040" to="456976452" priority="10" type="highway.tertiary" numLanes="1" speed="8.33" shape="6959.23,8515.81 7020.84,8529.56 7029.30,8533.94" disallow="tram rail_urban rail rail_electric rail_fast ship container cable_car subway aircraft wheelchair scooter drone" />
    <edge id="-1026653335#0" from="457351766" to="457351746" priority="10" type="highway.tertiary" numLanes="1" speed="11.11" shape="7098.85,8887.78 7088.55,8884.93 7077.63,8883.15 7062.82,8882.14 7054.62,8884.28 7051.65,8886.32" disallow="tram rail_urban rail rail_electric rail_fast ship container cable_car subway aircraft wheelchair scooter drone" />
    <edge id="-1026653335#1" from="457351767" to="457351766" priority="10" type="highway.tertiary" numLanes="1" speed="11.11" shape="7181.01,8910.57 7166.85,8907.44 7098.85,8887.78" disallow="tram rail_urban rail rail_electric rail_fast ship container cable_car subway aircraft wheelchair scooter drone" />
    <edge id="-1047497681" from="9632091334" to="522062060" priority="4" type="highway.unclassified" numLanes="1" speed="8.33" shape="7132.76,3325.64 7123.48,3361.48 7118.14,3376.96 7115.96,3384.91" disallow="tram rail_urban rail rail_electric rail_fast ship container cable_car subway aircraft wheelchair scooter drone" />
    <edge id="-1047497682#0" from="428232550" to="2178448022" priority="3" type="highway.residential" numLanes="1" speed="22.22" disallow="tram rail_urban rail rail_electric rail_fast ship container cable_car subway aircraft wheelchair scooter drone" />
    <edge id="-1047497682#1" from="9632091335" to="428232550" priority="3" type="highway.residential" numLanes="1" speed="22.22" shape="5632.59,3185.19 5623.27,3182.06 5621.18,3181.35" disallow="tram rail_urban rail rail_electric rail_fast ship container cable_car subway aircraft wheelchair scooter drone" />
    <edge id="-1047614060" from="9633200558" to="2518564031" priority="3" type="highway.residential" numLanes="1" speed="8.33" shape="3141.41,2724.92 3184.31,2816.07 3218.51,2882.32" disallow="tram rail_urban rail rail_electric rail_fast ship container cable_car subway aircraft wheelchair scooter drone" />
    <edge id="-1075608214" from="9864637722" to="9864637723" priority="3" type="highway.residential" numLanes="1" speed="13.89" disallow="tram rail_urban rail rail_electric rail_fast ship container cable_car subway aircraft wheelchair scooter drone" />
    <edge id="-1075608216#0" from="1569347297" to="1569347301" priority="3" type="highway.residential" numLanes="1" speed="8.33" shape="3570.35,3404.69 3572.70,3405.37 3586.19,3410.46" disallow="tram rail_urban rail rail_electric rail_fast ship container cable_car subway aircraft wheelchair scooter drone" />
    <edge id="-1075608216#1" from="1569347182" to="1569347297" priority="3" type="highway.residential" numLanes="1" speed="8.33" shape="3478.02,3368.50 3516.63,3387.78 3548.46,3397.61 3567.63,3403.81 3570.35,3404.69" disallow="tram rail_urban rail rail_electric rail_fast ship container cable_car subway aircraft wheelchair scooter drone" />
    <edge id="-1087084598" from="428695371" to="9960350943" priority="4" type="highway.unclassified" numLanes="1" speed="8.33" disallow="tram rail_urban rail rail_electric rail_fast ship container cable_car subway aircraft wheelchair scooter drone" />
    <edge id="-1087084600" from="9960350945" to="343595872" priority="4" type="highway.unclassified" numLanes="1" speed="8.33" shape="7957.19,2214.02 7955.96,2235.24 7952.57,2293.88 7952.21,2322.45" disallow="tram rail_urban rail rail_electric rail_fast ship container cable_car subway aircraft wheelchair scooter drone" />
    <edge id="-1091359197#0" from="582532828" to="9995839313" priority="12" type="highway.primary" numLanes="2" speed="13.89" shape="2948.53,7124.46 2865.28,7087.90 2789.35,7054.61" disallow="tram rail_urban rail rail_electric rail_fast ship container cable_car subway aircraft wheelchair scooter drone">
        <param key="ref" value="D 190" />
    </edge>
    <edge id="-1091359197#1" from="9995839315" to="582532828" priority="12" type="highway.primary" numLanes="2" speed="13.89" shape="3011.34,7152.07 3005.10,7149.35 2995.70,7145.22 2978.20,7137.55 2948.53,7124.46" disallow="tram rail_urban rail rail_electric rail_fast ship container cable_car subway aircraft wheelchair scooter drone">
        <param key="ref" value="D 190" />
    </edge>
    <edge id="-1091359198" from="619343758" to="9995839315" priority="12" type="highway.primary" numLanes="2" speed="13.89" shape="3355.14,7312.03 3320.00,7290.73 3308.97,7284.28 3300.06,7279.42 3294.95,7276.99 3278.42,7269.37 3040.63,7164.94 3011.34,7152.07" disallow="tram rail_urban rail rail_electric rail_fast ship container cable_car subway aircraft wheelchair scooter drone">
        <param key="ref" value="D 190" />
    </edge>
    <edge id="-1107073478" from="10130114493" to="10130114491" priority="4" type="highway.unclassified" numLanes="1" speed="13.89" shape="4417.61,8543.20 4424.98,8532.96 4462.65,8561.18" disallow="tram rail_urban rail rail_electric rail_fast ship container cable_car subway aircraft wheelchair scooter drone" />
    <edge id="-1107401567#0" from="758723501" to="5406255571" priority="11" type="highway.secondary" numLanes="1" speed="8.33" shape="4268.79,5983.45 4271.94,5984.91 4277.70,5987.59 4304.86,6000.20 4429.14,6057.97 4476.69,6079.43 4483.58,6082.53 4553.10,6113.56 4562.15,6117.97" disallow="tram rail_urban rail rail_electric rail_fast ship container cable_car subway aircraft wheelchair scooter drone" />
    <edge id="-1107401567#1" from="758723287" to="758723501" priority="11" type="highway.secondary" numLanes="1" speed="8.33" shape="4234.98,5968.18 4243.38,5971.97 4268.79,5983.45" disallow="tram rail_urban rail rail_electric rail_fast ship container cable_car subway aircraft wheelchair scooter drone" />
    <edge id="-1107401570#0" from="10132821259" to="11897324218" priority="11" type="highway.secondary" numLanes="1" speed="8.33" shape="4115.93,5907.37 4123.37,5910.84 4161.95,5930.17" disallow="tram rail_urban rail rail_electric rail_fast ship container cable_car subway aircraft wheelchair scooter drone" />
    <edge id="-1107401571#0" from="11897324413" to="10132821256" priority="11" type="highway.secondary" numLanes="1" speed="8.33" shape="3722.97,5703.75 3731.04,5707.94 3748.70,5717.04 4010.74,5852.58 4099.69,5898.60 4104.74,5901.08" disallow="tram rail_urban rail rail_electric rail_fast ship container cable_car subway aircraft wheelchair scooter drone" />
    <edge id="-1107401572" from="758723411" to="758723152" priority="12" type="highway.primary" numLanes="1" speed="13.89" disallow="tram rail_urban rail rail_electric rail_fast ship container cable_car subway aircraft wheelchair scooter drone">
        <param key="ref" value="D 14" />
    </edge>
    <edge id="-1107401573#0" from="758722773" to="758723411" priority="12" type="highway.primary" numLanes="1" speed="13.89" shape="4345.72,6547.51 4355.25,6558.47 4409.63,6616.12 4415.77,6622.27 4428.73,6635.12" disallow="tram rail_urban rail rail_electric rail_fast ship container cable_car subway aircraft wheelchair scooter drone">
        <param key="ref" value="D 14" />
    </edge>
    <edge id="-1107401573#1" from="11893663266" to="758722773" priority="12" type="highway.primary" numLanes="1" speed="13.89" shape="4263.85,6463.36 4287.40,6486.96 4345.72,6547.51" disallow="tram rail_urban rail rail_electric rail_fast ship container cable_car subway aircraft wheelchair scooter drone">
        <param key="ref" value="D 14" />
    </edge>
    <edge id="-1107401573#2" from="758723422" to="11893663266" priority="12" type="highway.primary" numLanes="1" speed="13.89" shape="4222.61,6421.78 4230.54,6429.98 4263.85,6463.36" disallow="tram rail_urban rail rail_electric rail_fast ship container cable_car subway aircraft wheelchair scooter drone">
        <param key="ref" value="D 14" />
    </edge>
    <edge id="-1107401573#3" from="758723489" to="758723422" priority="12" type="highway.primary" numLanes="1" speed="13.89" disallow="tram rail_urban rail rail_electric rail_fast ship container cable_car subway aircraft wheelchair scooter drone">
        <param key="ref" value="D 14" />
    </edge>
    <edge id="-1112772637#0" from="763545495" to="10757695225" priority="3" type="highway.residential" numLanes="1" speed="8.33" shape="4844.29,5091.30 4841.44,5090.67 4837.11,5089.98" disallow="tram rail_urban rail rail_electric rail_fast ship container cable_car subway aircraft wheelchair scooter drone" />
    <edge id="-1112772637#1" from="10181326306" to="763545495" priority="3" type="highway.residential" numLanes="1" speed="8.33" disallow="tram rail_urban rail rail_electric rail_fast ship container cable_car subway aircraft wheelchair scooter drone" />
    <edge id="-1112772637#2" from="763545440" to="10181326306" priority="3" type="highway.residential" numLanes="1" speed="8.33" disallow="tram rail_urban rail rail_electric rail_fast ship container cable_car subway aircraft wheelchair scooter drone" />
    <edge id="-1112772637#3" from="10181326279" to="763545440" priority="3" type="highway.residential" numLanes="1" speed="8.33" disallow="tram rail_urban rail rail_electric rail_fast ship container cable_car subway aircraft wheelchair scooter drone" />
    <edge id="-1112772637#4" from="10181326282" to="10181326279" priority="3" type="highway.residential" numLanes="1" speed="8.33" disallow="tram rail_urban rail rail_electric rail_fast ship container cable_car subway aircraft wheelchair scooter drone" />
    <edge id="-1115192659" from="763544985" to="763545526" priority="3" type="highway.residential" numLanes="1" speed="13.89" disallow="tram rail_urban rail rail_electric rail_fast ship container cable_car subway aircraft wheelchair scooter drone" />
    <edge id="-1115538235#0" from="5706724180" to="538411279" priority="12" type="highway.primary" numLanes="2" speed="8.33" disallow="tram rail_urban rail rail_electric rail_fast ship container cable_car subway aircraft wheelchair scooter drone">
        <param key="ref" value="D 43" />
    </edge>
    <edge id="-1115538235#1" from="257057909" to="5706724180" priority="12" type="highway.primary" numLanes="2" speed="8.33" disallow="tram rail_urban rail rail_electric rail_fast ship container cable_car subway aircraft wheelchair scooter drone">
        <param key="ref" value="D 43" />
    </edge>
    <edge id="-1115538238" from="5706724178" to="538411285" priority="12" type="highway.primary" numLanes="2" speed="13.89" disallow="tram rail_urban rail rail_electric rail_fast ship container cable_car subway aircraft wheelchair scooter drone">
        <param key="ref" value="D 43" />
    </edge>
    <edge id="-1137700878" from="10605019591" to="10605019590" priority="3" type="highway.residential" numLanes="1" speed="13.89" disallow="tram rail_urban rail rail_electric rail_fast ship container cable_car subway aircraft wheelchair scooter drone" />
    <edge id="-1137706304#0" from="10605021827" to="1901128115" priority="3" type="highway.residential" numLanes="1" speed="13.89" disallow="tram rail_urban rail rail_electric rail_fast ship container cable_car subway aircraft wheelchair scooter drone" />
    <edge id="-1137706304#1" from="10605021826" to="10605021827" priority="3" type="highway.residential" numLanes="1" speed="13.89" shape="3809.65,6692.30 3800.75,6688.12 3823.22,6637.86" disallow="tram rail_urban rail rail_electric rail_fast ship container cable_car subway aircraft wheelchair scooter drone" />
    <edge id="-1137706305#0" from="10605021829" to="10605021827" priority="3" type="highway.residential" numLanes="1" speed="13.89" disallow="tram rail_urban rail rail_electric rail_fast ship container cable_car subway aircraft wheelchair scooter drone" />
    <edge id="-1137706305#1" from="10605021828" to="10605021829" priority="3" type="highway.residential" numLanes="1" speed="13.89" disallow="tram rail_urban rail rail_electric rail_fast ship container cable_car subway aircraft wheelchair scooter drone" />
    <edge id="-1137706306" from="10605021830" to="10605021829" priority="3" type="highway.residential" numLanes="1" speed="13.89" disallow="tram rail_urban rail rail_electric rail_fast ship container cable_car subway aircraft wheelchair scooter drone" />
    <edge id="-1137934502" from="763552709" to="763552762" priority="3" type="highway.residential" numLanes="1" speed="13.89" shape="5466.77,3698.93 5469.84,3705.27 5472.08,3714.41" disallow="tram rail_urban rail rail_electric rail_fast ship container cable_car subway aircraft wheelchair scooter drone" />
    <edge id="-113866922#0" from="769307456" to="428695490" priority="4" type="highway.unclassified" numLanes="1" speed="8.33" disallow="tram rail_urban rail rail_electric rail_fast ship container cable_car subway aircraft wheelchair scooter drone" />
    <edge id="-113866922#1" from="522061744" to="769307456" priority="4" type="highway.unclassified" numLanes="1" speed="8.33" shape="7114.70,3393.32 7115.93,3398.03 7154.40,3434.58 7199.05,3470.07 7236.42,3494.37" disallow="tram rail_urban rail rail_electric rail_fast ship container cable_car subway aircraft wheelchair scooter drone" />
    <edge id="-1143688156" from="619156746" to="619156748" priority="3" type="highway.residential" numLanes="1" speed="13.89" disallow="tram rail_urban rail rail_electric rail_fast ship container cable_car subway aircraft wheelchair scooter drone" />
    <edge id="-1152783642#0" from="619155614" to="304779089" priority="12" type="highway.primary" numLanes="1" speed="13.89" shape="4706.83,7664.77 4701.10,7665.14 4694.24,7665.24 4681.63,7665.22 4675.78,7665.15" disallow="tram rail_urban rail rail_electric rail_fast ship container cable_car subway aircraft wheelchair scooter drone" />
    <edge id="-1152783643#0" from="10722354496" to="10722354503" priority="12" type="highway.primary" numLanes="1" speed="13.89" disallow="tram rail_urban rail rail_electric rail_fast ship container cable_car subway aircraft wheelchair scooter drone" />
    <edge id="-1152783643#1" from="304779089" to="10722354496" priority="12" type="highway.primary" numLanes="1" speed="13.89" disallow="tram rail_urban rail rail_electric rail_fast ship container cable_car subway aircraft wheelchair scooter drone" />
    <edge id="-1152783648" from="10722354418" to="392506486" priority="12" type="highway.primary" numLanes="1" speed="13.89" disallow="tram rail_urban rail rail_electric rail_fast ship container cable_car subway aircraft wheelchair scooter drone" />
    <edge id="-1152783649" from="10722354490" to="10722354424" priority="12" type="highway.primary" numLanes="1" speed="13.89" shape="4450.59,7630.80 4450.57,7629.33 4450.51,7625.46" disallow="tram rail_urban rail rail_electric rail_fast ship container cable_car subway aircraft wheelchair scooter drone">
        <param key="ref" value="D 14" />
    </edge>
    <edge id="-1152783655" from="10722354482" to="7407956118" priority="12" type="highway.primary" numLanes="2" speed="13.89" shape="4442.41,7698.31 4440.21,7713.60 4436.78,7740.93" disallow="tram rail_urban rail rail_electric rail_fast ship container cable_car subway aircraft wheelchair scooter drone">
        <param key="ref" value="D 14" />
    </edge>
    <edge id="-1157291959" from="5406763274" to="304775538" priority="10" type="highway.tertiary" numLanes="1" speed="13.89" disallow="tram rail_urban rail rail_electric rail_fast ship container cable_car subway aircraft wheelchair scooter drone" />
    <edge id="-1157291975#0" from="304944858" to="304945408" priority="4" type="highway.unclassified" numLanes="1" speed="13.89" disallow="tram rail_urban rail rail_electric rail_fast ship container cable_car subway aircraft wheelchair scooter drone" />
    <edge id="-1157291975#1" from="304944650" to="304944858" priority="4" type="highway.unclassified" numLanes="1" speed="13.89" shape="5068.80,2222.22 5078.23,2227.60 5143.80,2265.29 5168.63,2280.10 5183.57,2289.00" disallow="tram rail_urban rail rail_electric rail_fast ship container cable_car subway aircraft wheelchair scooter drone" />
    <edge id="-1162140273#0" from="257813599" to="10808091051" priority="11" type="highway.secondary" numLanes="1" speed="13.89" shape="6041.90,6758.07 6172.14,6701.97 6192.31,6693.55 6213.62,6684.45 6226.37,6679.02 6243.71,6671.62 6269.01,6660.58 6273.15,6658.82" disallow="tram rail_urban rail rail_electric rail_fast ship container cable_car subway aircraft wheelchair scooter drone">
        <param key="ref" value="D 154" />
    </edge>
    <edge id="-1162140275#0" from="12118832522" to="661093396" priority="3" type="highway.residential" numLanes="1" speed="8.33" shape="4927.68,7003.51 4932.94,6939.50 4933.80,6926.46 4934.04,6922.16" disallow="tram rail_urban rail rail_electric rail_fast ship container cable_car subway aircraft wheelchair scooter drone" />
    <edge id="-1162140275#1" from="758723071" to="12118832522" priority="3" type="highway.residential" numLanes="1" speed="8.33" disallow="tram rail_urban rail rail_electric rail_fast ship container cable_car subway aircraft wheelchair scooter drone" />
    <edge id="-1162140276" from="758789322" to="758789274" priority="3" type="highway.residential" numLanes="1" speed="8.33" shape="5203.25,6905.33 5217.14,6904.03 5301.60,6900.72" disallow="tram rail_urban rail rail_electric rail_fast ship container cable_car subway aircraft wheelchair scooter drone" />
    <edge id="-1162140277" from="7973738957" to="257813599" priority="11" type="highway.secondary" numLanes="1" speed="13.89" shape="5880.13,6837.41 5941.48,6803.72 5961.26,6794.13 6020.64,6767.27 6041.90,6758.07" disallow="tram rail_urban rail rail_electric rail_fast ship container cable_car subway aircraft wheelchair scooter drone">
        <param key="ref" value="D 154" />
    </edge>
    <edge id="-1162140280" from="758722747" to="10808093857" priority="3" type="highway.residential" numLanes="1" speed="5.56" disallow="tram rail_urban rail rail_electric rail_fast ship container cable_car subway aircraft wheelchair scooter drone" />
    <edge id="-1163555411#0" from="6391843513" to="758722941" priority="3" type="highway.residential" numLanes="1" speed="8.33" width="2.45" disallow="tram rail_urban rail rail_electric rail_fast ship container cable_car subway aircraft wheelchair scooter drone" />
    <edge id="-1163555411#2" from="11271603501" to="6391843513" priority="3" type="highway.residential" numLanes="1" speed="8.33" shape="4456.67,6806.37 4460.13,6804.76 4535.77,6762.95 4538.12,6761.64" width="2.45" disallow="tram rail_urban rail rail_electric rail_fast ship container cable_car subway aircraft wheelchair scooter drone" />
    <edge id="-1163555411#3" from="758722817" to="11271603501" priority="3" type="highway.residential" numLanes="1" speed="8.33" shape="4356.94,6797.19 4416.18,6814.40 4431.90,6814.23 4446.27,6811.19 4456.67,6806.37" width="2.45" disallow="tram rail_urban rail rail_electric rail_fast ship container cable_car subway aircraft wheelchair scooter drone" />
    <edge id="-1163555413#0" from="5601584725" to="758722817" priority="3" type="highway.residential" numLanes="1" speed="13.89" width="2.40" disallow="tram rail_urban rail rail_electric rail_fast ship container cable_car subway aircraft wheelchair scooter drone" />
    <edge id="-1163555413#1" from="758723152" to="5601584725" priority="3" type="highway.residential" numLanes="1" speed="13.89" shape="4444.31,6650.71 4441.50,6655.20 4440.27,6657.15 4424.82,6681.74" width="2.40" disallow="tram rail_urban rail rail_electric rail_fast ship container cable_car subway aircraft wheelchair scooter drone" />
    <edge id="-1163980639" from="257813585" to="10825161214" priority="11" type="highway.secondary" numLanes="1" speed="19.44" disallow="tram rail_urban rail rail_electric rail_fast ship container cable_car subway aircraft wheelchair scooter drone">
        <param key="ref" value="D 154" />
    </edge>
    <edge id="-1163980651#0" from="10825161302" to="10825161411" priority="11" type="highway.secondary" numLanes="1" speed="13.89" shape="7987.50,5683.42 7996.54,5678.32 8003.74,5672.92" disallow="tram rail_urban rail rail_electric rail_fast ship container cable_car subway aircraft wheelchair scooter drone">
        <param key="ref" value="D 154" />
    </edge>
    <edge id="-1163980651#1" from="10825161408" to="10825161302" priority="11" type="highway.secondary" numLanes="1" speed="13.89" shape="7978.87,5690.83 7982.27,5688.48 7985.00,5686.07 7987.50,5683.42" disallow="tram rail_urban rail rail_electric rail_fast ship container cable_car subway aircraft wheelchair scooter drone">
        <param key="ref" value="D 154" />
    </edge>
    <edge id="-1164554868" from="759621713" to="8365129206" priority="3" type="highway.residential" numLanes="1" speed="13.89" shape="3425.29,5229.04 3411.87,5258.20 3406.85,5269.11" disallow="tram rail_urban rail rail_electric rail_fast ship container cable_car subway aircraft wheelchair scooter drone" />
    <edge id="-1164554869#0" from="7022699104" to="7055612659" priority="12" type="highway.primary" numLanes="2" speed="8.33" disallow="tram rail_urban rail rail_electric rail_fast ship container cable_car subway aircraft wheelchair scooter drone">
        <param key="ref" value="D 43" />
    </edge>
    <edge id="-1164554884#0" from="10126707468" to="5320395532" priority="3" type="highway.residential" numLanes="1" speed="8.33" shape="5561.23,5283.18 5564.21,5278.79 5567.82,5264.15" disallow="tram rail_urban rail rail_electric rail_fast ship container cable_car subway aircraft wheelchair scooter drone" />
    <edge id="-1164554884#1" from="763545170" to="10126707468" priority="3" type="highway.residential" numLanes="1" speed="8.33" shape="5546.14,5307.89 5555.52,5291.59 5561.23,5283.18" disallow="tram rail_urban rail rail_electric rail_fast ship container cable_car subway aircraft wheelchair scooter drone" />
    <edge id="-1164554885#0" from="5320395420" to="763545486" priority="3" type="highway.residential" numLanes="1" speed="8.33" disallow="tram rail_urban rail rail_electric rail_fast ship container cable_car subway aircraft wheelchair scooter drone" />
    <edge id="-1164554891#0" from="10734994614" to="758723310" priority="3" type="highway.residential" numLanes="1" speed="8.33" shape="3533.48,6017.75 3516.39,6011.07 3413.72,5971.81" width="2.70" disallow="tram rail_urban rail rail_electric rail_fast ship container cable_car subway aircraft wheelchair scooter drone" />
    <edge id="-1164554891#1" from="10734994611" to="10734994614" priority="3" type="highway.residential" numLanes="1" speed="8.33" width="2.70" disallow="tram rail_urban rail rail_electric rail_fast ship container cable_car subway aircraft wheelchair scooter drone" />
    <edge id="-1164554891#2" from="5221901006" to="10734994611" priority="3" type="highway.residential" numLanes="1" speed="8.33" width="2.70" disallow="tram rail_urban rail rail_electric rail_fast ship container cable_car subway aircraft wheelchair scooter drone" />
    <edge id="-1164554891#3" from="5445446132" to="5221901006" priority="3" type="highway.residential" numLanes="1" speed="8.33" width="2.70" disallow="tram rail_urban rail rail_electric rail_fast ship container cable_car subway aircraft wheelchair scooter drone" />
    <edge id="-1164554891#4" from="11271603474" to="5445446132" priority="3" type="highway.residential" numLanes="1" speed="8.33" width="2.70" disallow="tram rail_urban rail rail_electric rail_fast ship container cable_car subway aircraft wheelchair scooter drone" />
    <edge id="-1164554891#5" from="758723014" to="11271603474" priority="3" type="highway.residential" numLanes="1" speed="8.33" shape="3734.35,6142.56 3728.29,6131.19 3722.22,6119.80 3706.70,6091.07 3693.16,6080.18 3680.65,6075.30" width="2.70" disallow="tram rail_urban rail rail_electric rail_fast ship container cable_car subway aircraft wheelchair scooter drone" />
    <edge id="-1164554892" from="758723522" to="758723310" priority="3" type="highway.residential" numLanes="1" speed="13.89" shape="3510.94,5727.67 3495.43,5761.69 3457.78,5858.42 3449.01,5882.32 3413.72,5971.81" disallow="tram rail_urban rail rail_electric rail_fast ship container cable_car subway aircraft wheelchair scooter drone" />
    <edge id="-1172615516" from="619156838" to="619156839" priority="10" type="highway.tertiary" numLanes="1" speed="8.33" disallow="tram rail_urban rail rail_electric rail_fast ship container cable_car subway aircraft wheelchair scooter drone" />
    <edge id="-1172615519" from="619156364" to="619156360" priority="3" type="highway.residential" numLanes="1" speed="13.89" shape="5020.45,8357.73 5032.29,8366.53 5064.16,8390.24 5076.99,8399.04 5085.82,8404.23 5095.38,8409.05 5105.42,8413.24" disallow="tram rail_urban rail rail_electric rail_fast ship container cable_car subway aircraft wheelchair scooter drone" />
    <edge id="-1172615520" from="10894984717" to="619156068" priority="3" type="highway.residential" numLanes="1" speed="13.89" disallow="tram rail_urban rail rail_electric rail_fast ship container cable_car subway aircraft wheelchair scooter drone" />
    <edge id="-1172615521" from="619156207" to="10735134379" priority="3" type="highway.residential" numLanes="1" speed="13.89" disallow="tram rail_urban rail rail_electric rail_fast ship container cable_car subway aircraft wheelchair scooter drone" />
    <edge id="-1172615522" from="619156114" to="619156170" priority="3" type="highway.residential" numLanes="1" speed="13.89" shape="5146.99,8164.04 5150.88,8162.15 5157.33,8160.78 5245.50,8167.16" disallow="tram rail_urban rail rail_electric rail_fast ship container cable_car subway aircraft wheelchair scooter drone" />
    <edge id="-1172615523#0" from="619156545" to="619156539" priority="3" type="highway.residential" numLanes="1" speed="13.89" shape="5512.91,8484.01 5506.55,8454.36 5503.17,8438.54" disallow="tram rail_urban rail rail_electric rail_fast ship container cable_car subway aircraft wheelchair scooter drone" />
    <edge id="-1172615523#1" from="619156569" to="619156545" priority="3" type="highway.residential" numLanes="1" speed="13.89" shape="5542.68,8550.14 5517.81,8506.43 5512.91,8484.01" disallow="tram rail_urban rail rail_electric rail_fast ship container cable_car subway aircraft wheelchair scooter drone" />