<?xml version="1.0" encoding="UTF-8"?>

<!-- generated on 2025-04-30 00:49:00 by Eclipse SUMO netconvert Version 1.22.0
<netconvertConfiguration xmlns:xsi="http://www.w3.org/2001/XMLSchema-instance" xsi:noNamespaceSchemaLocation="http://sumo.dlr.de/xsd/netconvertConfiguration.xsd">

    <input>
        <sumo-net-file value="les_mureaux/les_mureaux.net.xml"/>
    </input>

    <output>
        <plain-output-prefix value="les_mureaux/les_mureaux"/>
    </output>

    <processing>
        <geometry.min-radius.fix.railways value="false"/>
        <geometry.max-grade.fix value="false"/>
        <offset.disable-normalization value="true"/>
        <lefthand value="0"/>
    </processing>

    <tls_building>
        <tls.ignore-internal-junction-jam value="1"/>
    </tls_building>

    <junctions>
        <no-turnarounds value="true"/>
        <junctions.corner-detail value="5"/>
        <junctions.limit-turn-speed value="5.50"/>
        <rectangular-lane-cut value="0"/>
    </junctions>

    <pedestrian>
        <walkingareas value="0"/>
    </pedestrian>

</netconvertConfiguration>
-->

<tlLogics version="1.20" xmlns:xsi="http://www.w3.org/2001/XMLSchema-instance" xsi:noNamespaceSchemaLocation="http://sumo.dlr.de/xsd/tllogic_file.xsd">
    <tlLogic id="10722354413" type="static" programID="0" offset="0">
        <phase duration="80" state="G"/>
        <phase duration="5"  state="y"/>
        <phase duration="5"  state="r"/>
    </tlLogic>
    <tlLogic id="10722354486" type="static" programID="0" offset="0">
        <phase duration="82" state="GG"/>
        <phase duration="3"  state="yy"/>
        <phase duration="5"  state="rr"/>
    </tlLogic>
    <tlLogic id="2561825709" type="static" programID="0" offset="0">
        <phase duration="82" state="GG"/>
        <phase duration="3"  state="yy"/>
        <phase duration="5"  state="rr"/>
    </tlLogic>
    <tlLogic id="257056124" type="static" programID="0" offset="0">
        <phase duration="82" state="GG"/>
        <phase duration="3"  state="yy"/>
        <phase duration="5"  state="rr"/>
    </tlLogic>
    <tlLogic id="257057903" type="static" programID="0" offset="0">
        <phase duration="82" state="GG"/>
        <phase duration="3"  state="yy"/>
        <phase duration="5"  state="rr"/>
    </tlLogic>
    <tlLogic id="257813605" type="static" programID="0" offset="0">
        <phase duration="42" state="GGrr"/>
        <phase duration="3"  state="yyrr"/>
        <phase duration="42" state="rrGG"/>
        <phase duration="3"  state="rryy"/>
    </tlLogic>
    <tlLogic id="2697025612" type="static" programID="0" offset="0">
        <phase duration="82" state="GG"/>
        <phase duration="3"  state="yy"/>
        <phase duration="5"  state="rr"/>
    </tlLogic>
    <tlLogic id="304988682" type="static" programID="0" offset="0">
        <phase duration="82" state="GG"/>
        <phase duration="3"  state="yy"/>
        <phase duration="5"  state="rr"/>
    </tlLogic>
    <tlLogic id="304988756" type="static" programID="0" offset="0">
        <phase duration="82" state="G"/>
        <phase duration="3"  state="y"/>
        <phase duration="5"  state="r"/>
    </tlLogic>
    <tlLogic id="392506486" type="static" programID="0" offset="0">
        <phase duration="82" state="GGG"/>
        <phase duration="3"  state="yyy"/>
        <phase duration="5"  state="rrr"/>
    </tlLogic>
    <tlLogic id="441749692" type="static" programID="0" offset="0">
        <phase duration="82" state="GG"/>
        <phase duration="3"  state="yy"/>
        <phase duration="5"  state="rr"/>
    </tlLogic>
    <tlLogic id="5492164149" type="static" programID="0" offset="0">
        <phase duration="82" state="GG"/>
        <phase duration="3"  state="yy"/>
        <phase duration="5"  state="rr"/>
    </tlLogic>
    <tlLogic id="5492164150" type="static" programID="0" offset="0">
        <phase duration="82" state="GG"/>
        <phase duration="3"  state="yy"/>
        <phase duration="5"  state="rr"/>
    </tlLogic>
    <tlLogic id="5492164151" type="static" programID="0" offset="0">
        <phase duration="82" state="GG"/>
        <phase duration="3"  state="yy"/>
        <phase duration="5"  state="rr"/>
    </tlLogic>
    <tlLogic id="5492164152" type="static" programID="0" offset="0">
        <phase duration="82" state="GG"/>
        <phase duration="3"  state="yy"/>
        <phase duration="5"  state="rr"/>
    </tlLogic>
    <tlLogic id="5492164153" type="static" programID="0" offset="0">
        <phase duration="82" state="GG"/>
        <phase duration="3"  state="yy"/>
        <phase duration="5"  state="rr"/>
    </tlLogic>
    <tlLogic id="5492164154" type="static" programID="0" offset="0">
        <phase duration="82" state="G"/>
        <phase duration="3"  state="y"/>
        <phase duration="5"  state="r"/>
    </tlLogic>
    <tlLogic id="5492164155" type="static" programID="0" offset="0">
        <phase duration="82" state="G"/>
        <phase duration="3"  state="y"/>
        <phase duration="5"  state="r"/>
    </tlLogic>
    <tlLogic id="5492164156" type="static" programID="0" offset="0">
        <phase duration="82" state="G"/>
        <phase duration="3"  state="y"/>
        <phase duration="5"  state="r"/>
    </tlLogic>
    <tlLogic id="5492164157" type="static" programID="0" offset="0">
        <phase duration="82" state="G"/>
        <phase duration="3"  state="y"/>
        <phase duration="5"  state="r"/>
    </tlLogic>
    <tlLogic id="5533585717" type="static" programID="0" offset="0">
        <phase duration="42" state="GgGr"/>
        <phase duration="3"  state="yyGr"/>
        <phase duration="42" state="rrGG"/>
        <phase duration="3"  state="rrGy"/>
    </tlLogic>
    <tlLogic id="5706746022" type="static" programID="0" offset="0">
        <phase duration="82" state="G"/>
        <phase duration="3"  state="y"/>
        <phase duration="5"  state="r"/>
    </tlLogic>
    <tlLogic id="5706746023" type="static" programID="0" offset="0">
        <phase duration="82" state="G"/>
        <phase duration="3"  state="y"/>
        <phase duration="5"  state="r"/>
    </tlLogic>
    <tlLogic id="5706746024" type="static" programID="0" offset="0">
        <phase duration="82" state="G"/>
        <phase duration="3"  state="y"/>
        <phase duration="5"  state="r"/>
    </tlLogic>
    <tlLogic id="6391842856" type="static" programID="0" offset="0">
        <phase duration="82" state="G"/>
        <phase duration="3"  state="y"/>
        <phase duration="5"  state="r"/>
    </tlLogic>
    <tlLogic id="6391842857" type="static" programID="0" offset="0">
        <phase duration="82" state="G"/>
        <phase duration="3"  state="y"/>
        <phase duration="5"  state="r"/>
    </tlLogic>
    <tlLogic id="6391842877" type="static" programID="0" offset="0">
        <phase duration="82" state="G"/>
        <phase duration="3"  state="y"/>
        <phase duration="5"  state="r"/>
    </tlLogic>
    <tlLogic id="6391842878" type="static" programID="0" offset="0">
        <phase duration="82" state="G"/>
        <phase duration="3"  state="y"/>
        <phase duration="5"  state="r"/>
    </tlLogic>
    <tlLogic id="6391842881" type="static" programID="0" offset="0">
        <phase duration="82" state="GG"/>
        <phase duration="3"  state="yy"/>
        <phase duration="5"  state="rr"/>
    </tlLogic>
    <tlLogic id="6391843487" type="static" programID="0" offset="0">
        <phase duration="82" state="GG"/>
        <phase duration="3"  state="yy"/>
        <phase duration="5"  state="rr"/>
    </tlLogic>
    <tlLogic id="6391843509" type="static" programID="0" offset="0">
        <phase duration="82" state="G"/>
        <phase duration="3"  state="y"/>
        <phase duration="5"  state="r"/>
    </tlLogic>
    <tlLogic id="6391843510" type="static" programID="0" offset="0">
        <phase duration="82" state="G"/>
        <phase duration="3"  state="y"/>
        <phase duration="5"  state="r"/>
    </tlLogic>
    <tlLogic id="6391843511" type="static" programID="0" offset="0">
        <phase duration="82" state="G"/>
        <phase duration="3"  state="y"/>
        <phase duration="5"  state="r"/>
    </tlLogic>
    <tlLogic id="6391843512" type="static" programID="0" offset="0">
        <phase duration="82" state="GG"/>
        <phase duration="3"  state="yy"/>
        <phase duration="5"  state="rr"/>
    </tlLogic>
    <tlLogic id="6391843513" type="static" programID="0" offset="0">
        <phase duration="82" state="GG"/>
        <phase duration="3"  state="yy"/>
        <phase duration="5"  state="rr"/>
    </tlLogic>
    <tlLogic id="6391843522" type="static" programID="0" offset="0">
        <phase duration="82" state="GG"/>
        <phase duration="3"  state="yy"/>
        <phase duration="5"  state="rr"/>
    </tlLogic>
    <tlLogic id="6391843523" type="static" programID="0" offset="0">
        <phase duration="82" state="GG"/>
        <phase duration="3"  state="yy"/>
        <phase duration="5"  state="rr"/>
    </tlLogic>
    <tlLogic id="6391904224" type="static" programID="0" offset="0">
        <phase duration="82" state="GG"/>
        <phase duration="3"  state="yy"/>
        <phase duration="5"  state="rr"/>
    </tlLogic>
    <tlLogic id="6391904225" type="static" programID="0" offset="0">
        <phase duration="82" state="GG"/>
        <phase duration="3"  state="yy"/>
        <phase duration="5"  state="rr"/>
    </tlLogic>
    <tlLogic id="758722690" type="static" programID="0" offset="0">
        <phase duration="82" state="GG"/>
        <phase duration="3"  state="yy"/>
        <phase duration="5"  state="rr"/>
    </tlLogic>
    <tlLogic id="GS_619155672" type="static" programID="0" offset="0">
        <phase duration="24" state="rrrGggrrrGGg"/>
        <phase duration="3"  state="rrrGggrrryyy"/>
        <phase duration="6"  state="rrrGGGrrrrrr"/>
        <phase duration="3"  state="rrryyyrrrrrr"/>
        <phase duration="24" state="rrrrrrGGgGrr"/>
        <phase duration="3"  state="rrrrrryyyyrr"/>
        <phase duration="24" state="GGGrrrrrrrrr"/>
        <phase duration="3"  state="yyyrrrrrrrrr"/>
    </tlLogic>
    <tlLogic id="joinedS_10757713184_10757713185" type="static" programID="0" offset="0">
        <phase duration="42" state="rrrGGGGrrrrrrrrrGGGG"/>
        <phase duration="3"  state="rrryyyyrrrrrrrrryyyy"/>
        <phase duration="42" state="GGgrrrrGggGggGGgrrrr"/>
        <phase duration="3"  state="yyyrrrryyyyyyyyyrrrr"/>
    </tlLogic>
    <tlLogic id="joinedS_3857493172_7453352535" type="static" programID="0" offset="0">
        <phase duration="42" state="rGGGGG"/>
        <phase duration="3"  state="ryyGGG"/>
        <phase duration="42" state="GrrGGG"/>
        <phase duration="3"  state="yrrGGG"/>
    </tlLogic>

    <connection from="-1115805847#1" to="-1115805847#0" fromLane="0" toLane="0" tl="joinedS_10757713184_10757713185" linkIndex="10"/>
    <connection from="-1115805847#1" to="752298268#1" fromLane="0" toLane="1" tl="joinedS_10757713184_10757713185" linkIndex="11"/>
    <connection from="-1115805847#1" to="1115805847#1" fromLane="0" toLane="0" tl="joinedS_10757713184_10757713185" linkIndex="12"/>
    <connection from="-1152783648" to="-988736348" fromLane="0" toLane="0" tl="392506486" linkIndex="2"/>
    <connection from="-1156039324" to="752298269#1" fromLane="0" toLane="0" tl="joinedS_10757713184_10757713185" linkIndex="0"/>
    <connection from="-1156039324" to="-1115805847#1" fromLane="0" toLane="0" tl="joinedS_10757713184_10757713185" linkIndex="1"/>
    <connection from="-1156039324" to="1115805847#2" fromLane="0" toLane="0" tl="joinedS_10757713184_10757713185" linkIndex="2"/>
    <connection from="-1163555411#2" to="-1163555411#0" fromLane="0" toLane="0" tl="6391843513" linkIndex="1"/>
    <connection from="-1300488682#1" to="-1300488682#0" fromLane="0" toLane="0" tl="12045767385" linkIndex="1"/>
    <connection from="-48796658#2" to="-48796658#0" fromLane="0" toLane="0" tl="6391843487" linkIndex="1"/>
    <connection from="-48796663#2" to="-48796663#1" fromLane="0" toLane="0" tl="6391842881" linkIndex="1"/>
    <connection from="-48796669" to="48796663#2" fromLane="0" toLane="0" tl="6391842881" linkIndex="0"/>
    <connection from="-48796684#2" to="-48796650#3" fromLane="0" toLane="0" tl="GS_619155672" linkIndex="6"/>
    <connection from="-48796684#2" to="560544697#0" fromLane="0" toLane="0" tl="GS_619155672" linkIndex="7"/>
    <connection from="-48796684#2" to="48796684#0" fromLane="0" toLane="0" tl="GS_619155672" linkIndex="8"/>
    <connection from="-48815511#0" to="-48815462#1" fromLane="0" toLane="0" tl="619343756" linkIndex="0"/>
    <connection from="-48815511#1" to="-48815511#0" fromLane="0" toLane="0" tl="619343751" linkIndex="0"/>
    <connection from="-560544697#2" to="48796684#0" fromLane="0" toLane="0" tl="GS_619155672" linkIndex="9"/>
    <connection from="-560544697#2" to="-48796650#3" fromLane="0" toLane="0" tl="GS_619155672" linkIndex="10"/>
    <connection from="-560544697#2" to="560544697#0" fromLane="0" toLane="0" tl="GS_619155672" linkIndex="11"/>
    <connection from="-599926488#1" to="-599926488#0" fromLane="0" toLane="0" tl="90710899" linkIndex="0"/>
    <connection from="-599926488#2" to="-599926488#1" fromLane="0" toLane="0" tl="2734027655" linkIndex="0"/>
    <connection from="-60633930#3" to="-60633930#1" fromLane="0" toLane="0" tl="5492164151" linkIndex="0"/>
    <connection from="-60639041#0" to="225037423#4" fromLane="0" toLane="0" tl="257813605" linkIndex="2"/>
    <connection from="-60639041#0" to="60639041#0" fromLane="0" toLane="0" tl="257813605" linkIndex="3"/>
    <connection from="-661529991#1" to="-661529991#0" fromLane="0" toLane="0" tl="6193077126" linkIndex="0"/>
    <connection from="-868812839#3" to="-868812839#2" fromLane="0" toLane="0" tl="758722690" linkIndex="1"/>
    <connection from="-868812839#6" to="-868812839#4" fromLane="0" toLane="0" tl="6391843512" linkIndex="1"/>
    <connection from="1005516406#1" to="599926488#1" fromLane="0" toLane="0" tl="90710899" linkIndex="1"/>
    <connection from="1115805847#1" to="1115805847#2" fromLane="0" toLane="0" tl="joinedS_10757713184_10757713185" linkIndex="7"/>
    <connection from="1115805847#1" to="752298269#1" fromLane="0" toLane="1" tl="joinedS_10757713184_10757713185" linkIndex="8"/>
    <connection from="1115805847#1" to="-1115805847#1" fromLane="0" toLane="0" tl="joinedS_10757713184_10757713185" linkIndex="9"/>
    <connection from="1152783647#0" to="1152783647#2" fromLane="0" toLane="0" tl="10722354413" linkIndex="0"/>
    <connection from="1152783650#1" to="1152783650#3" fromLane="0" toLane="0" tl="2697025612" linkIndex="0"/>
    <connection from="1152783650#1" to="1152783650#3" fromLane="1" toLane="1" tl="2697025612" linkIndex="1"/>
    <connection from="1156039325#1" to="752298268#1" fromLane="0" toLane="0" tl="joinedS_10757713184_10757713185" linkIndex="13"/>
    <connection from="1156039325#1" to="1115805847#1" fromLane="0" toLane="0" tl="joinedS_10757713184_10757713185" linkIndex="14"/>
    <connection from="1156039325#1" to="-1115805847#0" fromLane="0" toLane="0" tl="joinedS_10757713184_10757713185" linkIndex="15"/>
    <connection from="1163555411#0" to="1163555411#1" fromLane="0" toLane="0" tl="6391843513" linkIndex="0"/>
    <connection from="1300488682#0" to="1300488682#1" fromLane="0" toLane="0" tl="12045767385" linkIndex="0"/>
    <connection from="156792642#0" to="156792642#1" fromLane="0" toLane="0" tl="6193077126" linkIndex="-1"/>
    <connection from="179466461#0" to="179466461#1" fromLane="0" toLane="0" tl="6391904225" linkIndex="0"/>
    <connection from="179466461#0" to="179466461#1" fromLane="1" toLane="1" tl="6391904225" linkIndex="1"/>
    <connection from="204975786#0" to="204975786#1" fromLane="0" toLane="0" tl="5706746022" linkIndex="0"/>
    <connection from="204975787#0" to="204975787#1" fromLane="0" toLane="0" tl="5492164154" linkIndex="0"/>
    <connection from="225037423#3" to="225037423#4" fromLane="0" toLane="0" tl="257813605" linkIndex="0"/>
    <connection from="225037423#3" to="60639041#0" fromLane="0" toLane="0" tl="257813605" linkIndex="1"/>
    <connection from="23735095#0" to="23735095#2" fromLane="0" toLane="0" tl="6391842878" linkIndex="0"/>
    <connection from="23735095#3" to="23735095#4" fromLane="0" toLane="0" tl="6391842857" linkIndex="0"/>
    <connection from="23735096#0" to="23735096#2" fromLane="0" toLane="0" tl="6391842856" linkIndex="0"/>
    <connection from="23735096#3" to="23735096#4" fromLane="0" toLane="0" tl="6391842877" linkIndex="0"/>
    <connection from="23735119#3" to="23735119#4" fromLane="0" toLane="0" tl="6391843523" linkIndex="0"/>
    <connection from="23735119#3" to="23735119#4" fromLane="1" toLane="1" tl="6391843523" linkIndex="1"/>
    <connection from="23735200#3" to="23735200#4" fromLane="0" toLane="0" tl="6391904224" linkIndex="0"/>
    <connection from="23735200#3" to="23735200#4" fromLane="1" toLane="1" tl="6391904224" linkIndex="1"/>
    <connection from="23735202#3" to="23735202#4" fromLane="0" toLane="0" tl="5492164150" linkIndex="0"/>
    <connection from="23735202#3" to="23735202#4" fromLane="1" toLane="1" tl="5492164150" linkIndex="1"/>
    <connection from="23735202#4" to="382329293#2" fromLane="0" toLane="0" tl="6391843522" linkIndex="0"/>
    <connection from="23735202#4" to="382329293#2" fromLane="1" toLane="1" tl="6391843522" linkIndex="1"/>
    <connection from="23735206#0" to="23735206#2" fromLane="0" toLane="0" tl="5492164149" linkIndex="0"/>
    <connection from="23735206#0" to="23735206#2" fromLane="1" toLane="1" tl="5492164149" linkIndex="1"/>
    <connection from="23735206#4" to="23735206#5" fromLane="0" toLane="0" tl="5492164153" linkIndex="0"/>
    <connection from="23735206#4" to="23735206#5" fromLane="1" toLane="1" tl="5492164153" linkIndex="1"/>
    <connection from="23755936" to="640701960#0" fromLane="0" toLane="0" tl="joinedS_3857493172_7453352535" linkIndex="1"/>
    <connection from="23755936" to="640701960#0" fromLane="1" toLane="1" tl="joinedS_3857493172_7453352535" linkIndex="2"/>
    <connection from="264028462#0" to="264028462#1" fromLane="0" toLane="0" tl="619343751" linkIndex="-1"/>
    <connection from="264028463#0" to="264028463#1" fromLane="0" toLane="0" tl="619343756" linkIndex="-1"/>
    <connection from="264028472#1" to="10526289#1" fromLane="0" toLane="0" tl="90710899" linkIndex="-1"/>
    <connection from="27776496#0" to="27776496#2" fromLane="0" toLane="0" tl="304988756" linkIndex="0"/>
    <connection from="27776735#2" to="27776735#3" fromLane="0" toLane="0" tl="304988682" linkIndex="0"/>
    <connection from="27776735#2" to="27776735#3" fromLane="1" toLane="1" tl="304988682" linkIndex="1"/>
    <connection from="331909107#0" to="560544697#0" fromLane="0" toLane="0" tl="GS_619155672" linkIndex="0"/>
    <connection from="331909107#0" to="48796684#0" fromLane="0" toLane="0" tl="GS_619155672" linkIndex="1"/>
    <connection from="331909107#0" to="-48796650#3" fromLane="1" toLane="0" tl="GS_619155672" linkIndex="2"/>
    <connection from="368804651#3" to="382542328" fromLane="0" toLane="0" tl="joinedS_3857493172_7453352535" linkIndex="3"/>
    <connection from="368804651#3" to="368804650" fromLane="1" toLane="0" tl="joinedS_3857493172_7453352535" linkIndex="4"/>
    <connection from="368804651#3" to="368804650" fromLane="2" toLane="1" tl="joinedS_3857493172_7453352535" linkIndex="5"/>
    <connection from="382542312" to="640701960#0" fromLane="0" toLane="0" tl="joinedS_3857493172_7453352535" linkIndex="0"/>
    <connection from="48796650#1" to="560544697#0" fromLane="0" toLane="0" tl="GS_619155672" linkIndex="3"/>
    <connection from="48796650#1" to="48796684#0" fromLane="1" toLane="0" tl="GS_619155672" linkIndex="4"/>
    <connection from="48796650#1" to="-48796650#3" fromLane="1" toLane="0" tl="GS_619155672" linkIndex="5"/>
    <connection from="48796658#0" to="48796658#1" fromLane="0" toLane="0" tl="6391843487" linkIndex="0"/>
    <connection from="48815462#1" to="48815511#0" fromLane="0" toLane="0" tl="619343756" linkIndex="1"/>
    <connection from="48815511#0" to="48815511#1" fromLane="0" toLane="0" tl="619343751" linkIndex="1"/>
    <connection from="51821547#0" to="51821547#2" fromLane="0" toLane="0" tl="2561825709" linkIndex="0"/>
    <connection from="51821547#0" to="51821547#2" fromLane="1" toLane="1" tl="2561825709" linkIndex="1"/>
    <connection from="550900607#2" to="23735202#2" fromLane="0" toLane="0" tl="5492164152" linkIndex="0"/>
    <connection from="550900607#2" to="23735202#2" fromLane="1" toLane="1" tl="5492164152" linkIndex="1"/>
    <connection from="576814115#7" to="576814115#9" fromLane="0" toLane="0" tl="5492164156" linkIndex="0"/>
    <connection from="577152098" to="60633849#2" fromLane="0" toLane="0" tl="5533585717" linkIndex="0"/>
    <connection from="577152098" to="-577152098" fromLane="0" toLane="0" tl="5533585717" linkIndex="1"/>
    <connection from="599926488#1" to="599926488#2" fromLane="0" toLane="0" tl="2734027655" linkIndex="1"/>
    <connection from="599974687#0" to="599974687#1" fromLane="0" toLane="0" tl="257057903" linkIndex="0"/>
    <connection from="599974687#0" to="599974687#1" fromLane="1" toLane="1" tl="257057903" linkIndex="1"/>
    <connection from="60633849#0" to="-577152098" fromLane="0" toLane="0" tl="5533585717" linkIndex="2"/>
    <connection from="60633849#0" to="60633849#2" fromLane="0" toLane="0" tl="5533585717" linkIndex="3"/>
    <connection from="60633865#0" to="60633865#1" fromLane="0" toLane="0" tl="5706746023" linkIndex="0"/>
    <connection from="60633903#1" to="60633903#2" fromLane="0" toLane="0" tl="6391843511" linkIndex="0"/>
    <connection from="60633930#1" to="60633930#2" fromLane="0" toLane="0" tl="5492164151" linkIndex="1"/>
    <connection from="648243517#0" to="648243517#1" fromLane="0" toLane="0" tl="12045767385" linkIndex="-1"/>
    <connection from="652870334#2" to="652870334#3" fromLane="0" toLane="0" tl="10722354486" linkIndex="0"/>
    <connection from="652870334#2" to="652870334#3" fromLane="1" toLane="1" tl="10722354486" linkIndex="1"/>
    <connection from="661529991#0" to="661529991#1" fromLane="0" toLane="0" tl="6193077126" linkIndex="1"/>
    <connection from="682523869#0" to="682523869#1" fromLane="0" toLane="0" tl="6391843510" linkIndex="0"/>
    <connection from="682523880#0" to="682523880#2" fromLane="0" toLane="0" tl="6391843509" linkIndex="0"/>
    <connection from="684907507#0" to="684907507#1" fromLane="0" toLane="0" tl="5706746024" linkIndex="0"/>
    <connection from="694483655" to="652870343" fromLane="0" toLane="0" tl="257056124" linkIndex="0"/>
    <connection from="694483655" to="652870343" fromLane="1" toLane="1" tl="257056124" linkIndex="1"/>
    <connection from="696367799#0" to="696367799#1" fromLane="0" toLane="0" tl="2734027655" linkIndex="-1"/>
    <connection from="752298268#0" to="-1115805847#0" fromLane="0" toLane="0" tl="joinedS_10757713184_10757713185" linkIndex="16"/>
    <connection from="752298268#0" to="752298268#1" fromLane="0" toLane="0" tl="joinedS_10757713184_10757713185" linkIndex="17"/>
    <connection from="752298268#0" to="752298268#1" fromLane="1" toLane="1" tl="joinedS_10757713184_10757713185" linkIndex="18"/>
    <connection from="752298268#0" to="1115805847#1" fromLane="1" toLane="0" tl="joinedS_10757713184_10757713185" linkIndex="19"/>
    <connection from="752298269#0" to="1115805847#2" fromLane="0" toLane="0" tl="joinedS_10757713184_10757713185" linkIndex="3"/>
    <connection from="752298269#0" to="752298269#1" fromLane="0" toLane="0" tl="joinedS_10757713184_10757713185" linkIndex="4"/>
    <connection from="752298269#0" to="752298269#1" fromLane="1" toLane="1" tl="joinedS_10757713184_10757713185" linkIndex="5"/>
    <connection from="752298269#0" to="-1115805847#1" fromLane="1" toLane="0" tl="joinedS_10757713184_10757713185" linkIndex="6"/>
    <connection from="868812839#2" to="868812839#3" fromLane="0" toLane="0" tl="758722690" linkIndex="0"/>
    <connection from="868812839#4" to="868812839#5" fromLane="0" toLane="0" tl="6391843512" linkIndex="0"/>
    <connection from="924947812#0" to="924947812#1" fromLane="0" toLane="0" tl="5492164157" linkIndex="0"/>
    <connection from="924947812#1" to="924947812#2" fromLane="0" toLane="0" tl="5492164155" linkIndex="0"/>
    <connection from="988736348" to="1152783648" fromLane="0" toLane="0" tl="392506486" linkIndex="0"/>
    <connection from="988736348" to="1152783648" fromLane="1" toLane="1" tl="392506486" linkIndex="1"/>
    <connection from="988736351" to="48796660#1" fromLane="0" toLane="0" tl="441749692" linkIndex="0"/>
    <connection from="988736351" to="48796660#1" fromLane="1" toLane="1" tl="441749692" linkIndex="1"/>
</tlLogics>
