<?xml version="1.0" encoding="UTF-8"?>

<!-- generated on 2025-11-19T15:07:54.090627+01:00 by Eclipse SUMO netconvert 1.25.0
<netconvertConfiguration xmlns:xsi="http://www.w3.org/2001/XMLSchema-instance" xsi:noNamespaceSchemaLocation="http://sumo.dlr.de/xsd/netconvertConfiguration.xsd">

    <input>
        <sumo-net-file value="andorra.net.xml"/>
    </input>

    <output>
        <plain-output-prefix value="andorra/andorra"/>
    </output>

    <processing>
        <geometry.min-radius.fix.railways value="false"/>
        <geometry.avoid-overlap value="false"/>
        <geometry.max-grade.fix value="false"/>
        <offset.disable-normalization value="true"/>
        <lefthand value="0"/>
    </processing>

    <tls_building>
        <tls.ignore-internal-junction-jam value="1"/>
    </tls_building>

    <junctions>
        <no-turnarounds value="true"/>
        <junctions.corner-detail value="5"/>
        <junctions.limit-turn-speed value="5.50"/>
        <rectangular-lane-cut value="0"/>
    </junctions>

    <pedestrian>
        <walkingareas value="0"/>
    </pedestrian>

</netconvertConfiguration>
-->

<nodes version="1.20" xmlns:xsi="http://www.w3.org/2001/XMLSchema-instance" xsi:noNamespaceSchemaLocation="http://sumo.dlr.de/xsd/nodes_file.xsd">
    <location netOffset="-368487.41,-4697264.75" convBoundary="0.00,0.00,32246.67,28584.81" origBoundary="1.400119,42.371588,1.799090,42.676172" projParameter="+proj=utm +zone=31 +ellps=WGS84 +datum=WGS84 +units=m +no_defs"/>

    <node id="10054468656" x="10566.43" y="16900.70" type="right_before_left"/>
    <node id="10054612175" x="10551.35" y="16120.13" type="right_before_left"/>
    <node id="10058034716" x="15886.37" y="12525.59" type="priority"/>
    <node id="10058358197" x="9352.10" y="8968.11" type="priority"/>
    <node id="10058358198" x="9342.00" y="8963.78" type="right_before_left"/>
    <node id="10058358200" x="9277.82" y="8918.68" type="priority"/>
    <node id="10058358204" x="9316.54" y="8958.30" type="right_before_left"/>
    <node id="10058358209" x="9324.02" y="8982.00" type="right_before_left"/>
    <node id="10058361220" x="9496.96" y="9350.28" type="right_before_left"/>
    <node id="10069089625" x="17631.44" y="7441.90" type="priority"/>
    <node id="10069089626" x="17625.47" y="7438.19" type="priority"/>
    <node id="10069443479" x="26180.46" y="20748.86" type="priority"/>
    <node id="10069443481" x="26137.58" y="20746.92" type="dead_end"/>
    <node id="10069443482" x="26145.39" y="20750.68" type="dead_end"/>
    <node id="10069443483" x="26185.24" y="20757.97" type="right_before_left"/>
    <node id="10072706265" x="10759.83" y="16257.19" type="priority"/>
    <node id="10081219712" x="15362.08" y="12801.23" type="priority"/>
    <node id="10081219716" x="15336.94" y="12782.29" type="right_before_left"/>
    <node id="10081232538" x="10164.73" y="10138.78" type="priority"/>
    <node id="10081237417" x="15372.73" y="12793.75" type="priority"/>
    <node id="10081303834" x="27738.98" y="13642.69" type="priority"/>
    <node id="10081303837" x="27760.05" y="13677.66" type="priority"/>
    <node id="10081303838" x="27715.94" y="13623.23" type="right_before_left"/>
    <node id="10087012507" x="27504.25" y="13022.89" type="right_before_left"/>
    <node id="10087012511" x="27507.45" y="12984.60" type="priority"/>
    <node id="10087012515" x="27509.96" y="12913.96" type="right_before_left"/>
    <node id="10087020019" x="27493.41" y="13041.71" type="right_before_left"/>
    <node id="10087020026" x="27418.98" y="13500.04" type="priority"/>
    <node id="10087020027" x="27544.08" y="13553.32" type="priority"/>
    <node id="10087020052" x="27420.57" y="13739.24" type="priority"/>
    <node id="10087020057" x="27318.66" y="14009.65" type="priority"/>
    <node id="10087020063" x="27318.09" y="13978.91" type="priority"/>
    <node id="10087020073" x="27311.46" y="13940.27" type="priority"/>
    <node id="10087020091" x="27495.25" y="13547.72" type="priority"/>
    <node id="10087020092" x="27480.14" y="13547.07" type="priority"/>
    <node id="10087020093" x="27464.94" y="13547.05" type="priority"/>
    <node id="10087020094" x="27450.03" y="13550.82" type="priority"/>
    <node id="10087020095" x="27464.75" y="13563.22" type="right_before_left"/>
    <node id="10087020096" x="27435.45" y="13574.91" type="right_before_left"/>
    <node id="10087020097" x="27431.22" y="13591.75" type="right_before_left"/>
    <node id="10087020098" x="27512.39" y="13574.35" type="priority"/>
    <node id="10087020106" x="27529.76" y="13107.78" type="priority"/>
    <node id="10087020114" x="27605.50" y="13214.76" type="right_before_left"/>
    <node id="10087032683" x="26771.24" y="13370.70" type="priority"/>
    <node id="10087032688" x="27494.01" y="12868.12" type="right_before_left"/>
    <node id="10087032700" x="27169.56" y="13079.15" type="priority"/>
    <node id="10087032710" x="26929.59" y="12965.09" type="priority"/>
    <node id="10087089125" x="27372.65" y="13297.15" type="priority"/>
    <node id="10087089128" x="27441.18" y="13334.75" type="priority"/>
    <node id="10087089147" x="27463.51" y="13362.62" type="right_before_left"/>
    <node id="10087089148" x="27470.47" y="13364.38" type="right_before_left"/>
    <node id="10087089153" x="27490.73" y="13319.30" type="right_before_left"/>
    <node id="10087089155" x="27490.91" y="13294.61" type="right_before_left"/>
    <node id="10087089159" x="27476.22" y="13210.97" type="priority"/>
    <node id="10087089167" x="27493.34" y="13072.54" type="right_before_left"/>
    <node id="10087089175" x="27429.97" y="13241.63" type="right_before_left"/>
    <node id="10087089178" x="27447.43" y="13186.27" type="right_before_left"/>
    <node id="10087089304" x="27648.76" y="13914.60" type="priority"/>
    <node id="10087089305" x="27620.16" y="13931.81" type="priority"/>
    <node id="10087089308" x="27510.91" y="13991.61" type="priority"/>
    <node id="10087089336" x="27552.86" y="13835.87" type="priority"/>
    <node id="10087089337" x="27538.66" y="13850.51" type="right_before_left"/>
    <node id="10087089338" x="27538.54" y="13865.47" type="right_before_left"/>
    <node id="10087089339" x="27538.33" y="13880.68" type="right_before_left"/>
    <node id="10087089341" x="27549.39" y="13802.94" type="priority"/>
    <node id="10087108622" x="27374.48" y="12167.94" type="priority"/>
    <node id="10087236552" x="12960.65" y="18097.53" type="right_before_left"/>
    <node id="10087236579" x="12562.97" y="18206.45" type="right_before_left"/>
    <node id="10094939532" x="13232.89" y="13981.20" type="right_before_left"/>
    <node id="10094939610" x="13626.30" y="15111.69" type="right_before_left"/>
    <node id="10094939621" x="15192.71" y="13210.07" type="dead_end"/>
    <node id="10094939631" x="15231.68" y="13259.47" type="priority"/>
    <node id="10094939648" x="15402.19" y="13249.34" type="dead_end"/>
    <node id="10094939656" x="15473.28" y="13278.62" type="priority"/>
    <node id="10094939657" x="15508.88" y="13254.52" type="dead_end"/>
    <node id="10094939659" x="15529.65" y="13252.19" type="priority"/>
    <node id="10094939666" x="15377.85" y="13298.99" type="priority"/>
    <node id="10094939667" x="15383.84" y="13314.45" type="priority"/>
    <node id="10094939673" x="15425.72" y="13317.75" type="priority"/>
    <node id="10094939707" x="15508.88" y="13413.37" type="right_before_left"/>
    <node id="10094939730" x="15541.02" y="13490.12" type="priority"/>
    <node id="10095421317" x="23059.07" y="14818.62" type="priority"/>
    <node id="10095421333" x="23454.98" y="13915.40" type="right_before_left"/>
    <node id="10095421436" x="21076.91" y="8356.70" type="right_before_left"/>
    <node id="10095463855" x="12896.38" y="22674.37" type="right_before_left"/>
    <node id="10095463864" x="12904.94" y="22650.78" type="priority"/>
    <node id="10095489041" x="15395.12" y="21522.38" type="right_before_left"/>
    <node id="10095489042" x="15399.05" y="21523.47" type="priority"/>
    <node id="10095489154" x="13209.30" y="22978.85" type="right_before_left"/>
    <node id="10095491954" x="26074.96" y="20733.31" type="right_before_left"/>
    <node id="10095491973" x="26184.03" y="20753.28" type="right_before_left"/>
    <node id="10096389545" x="15394.12" y="13271.69" type="priority"/>
    <node id="10096389547" x="15400.52" y="13264.16" type="priority"/>
    <node id="10096389549" x="15409.26" y="13235.79" type="dead_end"/>
    <node id="10096389551" x="15415.16" y="13221.57" type="dead_end"/>
    <node id="10096389552" x="15416.55" y="13217.24" type="dead_end"/>
    <node id="10096389555" x="15434.61" y="13278.75" type="dead_end"/>
    <node id="10096389566" x="15081.45" y="12916.66" type="dead_end"/>
    <node id="10096389568" x="15102.30" y="13119.23" type="priority"/>
    <node id="10096389571" x="15087.79" y="13095.88" type="priority"/>
    <node id="10096389583" x="9926.41" y="1947.30" type="right_before_left"/>
    <node id="10096389592" x="9831.89" y="1972.52" type="right_before_left"/>
    <node id="10096389593" x="9921.43" y="1934.58" type="right_before_left"/>
    <node id="10096400466" x="12550.41" y="5370.45" type="right_before_left"/>
    <node id="10096400480" x="12535.73" y="5358.32" type="priority"/>
    <node id="10096400485" x="12555.78" y="5369.79" type="right_before_left"/>
    <node id="10097286178" x="13082.71" y="3479.95" type="right_before_left"/>
    <node id="10097318557" x="9814.59" y="1960.78" type="priority"/>
    <node id="10097318559" x="15415.72" y="13282.79" type="dead_end"/>
    <node id="10097318560" x="15535.69" y="13256.46" type="dead_end"/>
    <node id="10097318562" x="15541.49" y="13268.16" type="dead_end"/>
    <node id="10097318579" x="15538.06" y="12912.61" type="dead_end"/>
    <node id="10097318581" x="15555.41" y="12922.49" type="dead_end"/>
    <node id="10097318597" x="15104.13" y="12890.46" type="priority"/>
    <node id="10097318598" x="15081.58" y="12975.82" type="right_before_left"/>
    <node id="10097318602" x="15114.33" y="12972.04" type="dead_end"/>
    <node id="10097318608" x="15434.77" y="12920.44" type="priority"/>
    <node id="10097318609" x="15433.94" y="12927.81" type="dead_end"/>
    <node id="10097318624" x="15589.66" y="12948.10" type="dead_end"/>
    <node id="10097318625" x="15617.30" y="13022.25" type="dead_end"/>
    <node id="10097318675" x="15781.17" y="13421.81" type="priority"/>
    <node id="10097318686" x="15876.60" y="13452.80" type="priority"/>
    <node id="10097318719" x="15485.45" y="13311.14" type="dead_end"/>
    <node id="10097318773" x="15353.65" y="13423.20" type="priority"/>
    <node id="10097318787" x="15111.90" y="13122.40" type="dead_end"/>
    <node id="10097318788" x="15106.63" y="13126.46" type="priority"/>
    <node id="10098178397" x="15172.68" y="13031.02" type="dead_end"/>
    <node id="10098178405" x="15183.71" y="13041.30" type="priority"/>
    <node id="10098178408" x="15150.34" y="12946.56" type="dead_end"/>
    <node id="10098178410" x="15141.77" y="13055.49" type="priority"/>
    <node id="10098178443" x="15170.44" y="12795.10" type="dead_end"/>
    <node id="10098178444" x="15152.19" y="12793.61" type="dead_end"/>
    <node id="10098178445" x="15172.29" y="12814.10" type="dead_end"/>
    <node id="10098178446" x="15220.76" y="12845.86" type="dead_end"/>
    <node id="10098178449" x="15047.69" y="12951.63" type="dead_end"/>
    <node id="10098178456" x="15066.60" y="12939.97" type="dead_end"/>
    <node id="10098178544" x="21846.78" y="18223.78" type="priority"/>
    <node id="10116676091" x="15744.20" y="9587.53" type="right_before_left"/>
    <node id="10116897866" x="17750.85" y="8994.71" type="right_before_left"/>
    <node id="10119827212" x="14830.20" y="12078.53" type="right_before_left"/>
    <node id="10119827213" x="14968.66" y="11813.15" type="right_before_left"/>
    <node id="10119926721" x="14899.25" y="12473.31" type="right_before_left"/>
    <node id="10119926722" x="14851.85" y="12525.36" type="right_before_left"/>
    <node id="10132574059" x="24445.06" y="21345.84" type="right_before_left"/>
    <node id="10148397322" x="5366.27" y="20285.80" type="right_before_left"/>
    <node id="10148397411" x="5163.34" y="20820.09" type="priority"/>
    <node id="10170845747" x="27323.45" y="14003.15" type="priority"/>
    <node id="10170847179" x="27619.67" y="13701.72" type="priority"/>
    <node id="10209152200" x="11081.56" y="10164.76" type="traffic_light" tl="joinedS_10209152200_12453409025_12453409026"/>
    <node id="10311784105" x="7419.23" y="4205.38" type="priority"/>
    <node id="10311818623" x="8678.73" y="15730.43" type="priority"/>
    <node id="10311818624" x="8662.07" y="15719.86" type="priority"/>
    <node id="10311818625" x="8661.52" y="15716.36" type="priority"/>
    <node id="10311818662" x="7018.11" y="17492.60" type="priority"/>
    <node id="10311819946" x="5443.59" y="13808.71" type="priority"/>
    <node id="10556892422" x="11417.55" y="15303.13" type="priority"/>
    <node id="10556892482" x="11798.01" y="15291.54" type="right_before_left"/>
    <node id="10556892503" x="11974.72" y="15312.27" type="right_before_left"/>
    <node id="10556927009" x="11992.68" y="15273.44" type="priority"/>
    <node id="1057492022-AddedOffRampNode" x="9975.03" y="12949.07" type="priority"/>
    <node id="10587003813" x="6668.59" y="3130.24" type="priority"/>
    <node id="10587003817" x="6660.90" y="3088.99" type="priority"/>
    <node id="10587003818" x="6666.61" y="3089.46" type="priority"/>
    <node id="10587003820" x="6643.80" y="3121.02" type="priority"/>
    <node id="10635061799" x="14320.06" y="12304.47" type="priority"/>
    <node id="10635061800" x="14311.93" y="12310.58" type="right_before_left"/>
    <node id="10635061803" x="14298.55" y="12325.67" type="right_before_left"/>
    <node id="10635075506" x="14250.80" y="12359.97" type="priority"/>
    <node id="10699049248" x="20470.59" y="17632.19" type="right_before_left"/>
    <node id="10699049255" x="20433.06" y="17642.99" type="right_before_left"/>
    <node id="10699049333" x="20371.09" y="17625.35" type="priority"/>
    <node id="10699049335" x="20343.24" y="17655.75" type="right_before_left"/>
    <node id="10699055760" x="20862.93" y="17460.90" type="right_before_left"/>
    <node id="10699055761" x="20846.71" y="17520.04" type="right_before_left"/>
    <node id="10699055765" x="20844.67" y="17466.53" type="right_before_left"/>
    <node id="10699055766" x="20830.76" y="17469.41" type="priority"/>
    <node id="10699055773" x="20778.32" y="17434.07" type="right_before_left"/>
    <node id="10699055776" x="20829.38" y="17436.52" type="right_before_left"/>
    <node id="10699055780" x="20801.74" y="17400.86" type="priority"/>
    <node id="10699055782" x="20827.21" y="17403.52" type="right_before_left"/>
    <node id="10699055784" x="20872.25" y="17411.09" type="priority"/>
    <node id="10699055786" x="20843.53" y="17401.21" type="right_before_left"/>
    <node id="10699055787" x="20833.12" y="17403.82" type="priority"/>
    <node id="10699055789" x="20882.58" y="17441.08" type="priority"/>
    <node id="10699055791" x="20843.63" y="17435.62" type="right_before_left"/>
    <node id="10699055792" x="20834.06" y="17436.36" type="priority"/>
    <node id="10701174600" x="4229.75" y="6324.60" type="priority"/>
    <node id="10701174601" x="4195.64" y="6330.72" type="dead_end"/>
    <node id="10701174602" x="4209.39" y="6330.83" type="dead_end"/>
    <node id="10701174603" x="4236.60" y="6322.50" type="priority"/>
    <node id="10701174604" x="4039.36" y="6213.29" type="priority"/>
    <node id="10701174611" x="3684.46" y="6519.68" type="priority"/>
    <node id="10716008124" x="10829.49" y="22948.39" type="priority"/>
    <node id="10716008205" x="10445.97" y="22906.77" type="priority"/>
    <node id="10718739387" x="9948.50" y="17068.64" type="priority"/>
    <node id="10718739394" x="9939.25" y="17074.46" type="priority"/>
    <node id="10727806197" x="11389.39" y="21008.31" type="right_before_left"/>
    <node id="10727811507" x="11318.54" y="20917.74" type="priority"/>
    <node id="10732120393" x="8580.61" y="8594.99" type="priority"/>
    <node id="10732120402" x="8308.21" y="8444.42" type="priority"/>
    <node id="10804444743" x="6673.11" y="3092.08" type="priority"/>
    <node id="10876353780" x="7711.97" y="7464.04" type="priority"/>
    <node id="10876481288" x="10789.63" y="10119.07" type="dead_end"/>
    <node id="10876481290" x="10793.21" y="10115.65" type="dead_end"/>
    <node id="10876481291" x="10794.55" y="10113.16" type="dead_end"/>
    <node id="10900320195" x="7665.54" y="5472.05" type="right_before_left"/>
    <node id="10900320197" x="7605.72" y="5501.86" type="priority"/>
    <node id="10900320201" x="7673.49" y="6008.93" type="dead_end"/>
    <node id="10900320202" x="7670.38" y="6009.08" type="priority"/>
    <node id="10900320203" x="7668.03" y="6009.42" type="priority"/>
    <node id="10900328109" x="7643.75" y="6153.51" type="dead_end"/>
    <node id="10900328112" x="7584.69" y="6193.89" type="dead_end"/>
    <node id="10900328113" x="7579.94" y="6193.32" type="dead_end"/>
    <node id="10900328119" x="7600.12" y="6104.50" type="priority"/>
    <node id="10900328120" x="7604.76" y="6094.53" type="dead_end"/>
    <node id="10900328134" x="7557.60" y="6170.57" type="priority"/>
    <node id="10900328136" x="7569.40" y="6196.03" type="dead_end"/>
    <node id="10900328141" x="7407.15" y="6309.88" type="priority"/>
    <node id="10900328142" x="7402.02" y="6318.18" type="priority"/>
    <node id="10903263885" x="7483.98" y="6259.35" type="priority"/>
    <node id="10903263886" x="7459.78" y="6296.09" type="priority"/>
    <node id="10903263887" x="7451.83" y="6313.05" type="dead_end"/>
    <node id="10903263888" x="7415.39" y="6310.62" type="dead_end"/>
    <node id="10903263889" x="7417.54" y="6322.84" type="dead_end"/>
    <node id="10903263890" x="7410.71" y="6323.07" type="dead_end"/>
    <node id="10903263891" x="7410.95" y="6320.12" type="dead_end"/>
    <node id="10903387158" x="7276.32" y="4891.96" type="priority"/>
    <node id="10903392703" x="6567.59" y="4374.89" type="priority"/>
    <node id="10903393626" x="7626.07" y="5545.10" type="priority"/>
    <node id="10903393627" x="7621.82" y="5546.82" type="dead_end"/>
    <node id="10903400733" x="7344.10" y="4851.75" type="dead_end"/>
    <node id="10903414529" x="6970.13" y="4723.64" type="priority"/>
    <node id="10903414532" x="7046.38" y="4735.26" type="priority"/>
    <node id="10905971633" x="6739.16" y="4922.64" type="priority"/>
    <node id="10905978871" x="7684.42" y="5473.16" type="priority"/>
    <node id="10905978874" x="7587.74" y="5463.67" type="priority"/>
    <node id="10906013839" x="7032.03" y="6375.79" type="priority"/>
    <node id="10906013840" x="7022.20" y="6418.19" type="priority"/>
    <node id="10906013841" x="7233.64" y="6442.41" type="right_before_left"/>
    <node id="10906051205" x="7445.86" y="7288.33" type="priority"/>
    <node id="10906051210" x="7491.07" y="7322.24" type="priority"/>
    <node id="10908775894" x="15500.51" y="13359.94" type="dead_end"/>
    <node id="10909193888" x="9828.76" y="9530.65" type="right_before_left"/>
    <node id="10909193889" x="9831.66" y="9532.46" type="priority"/>
    <node id="10909193896" x="9910.16" y="9565.27" type="priority"/>
    <node id="10909193897" x="9910.07" y="9567.16" type="priority"/>
    <node id="10909221504" x="7719.90" y="7469.38" type="priority"/>
    <node id="10909228105" x="10088.86" y="9632.56" type="priority"/>
    <node id="10909228108" x="10082.82" y="9633.00" type="traffic_light" tl="joinedS_10909228108_10909228109" controlledInner="-1174068263#1 1174068263#1"/>
    <node id="10909228109" x="10084.62" y="9633.07" type="traffic_light" tl="joinedS_10909228108_10909228109" controlledInner="-1174068263#1 1174068263#1"/>
    <node id="10909238247" x="9665.39" y="9535.26" type="dead_end"/>
    <node id="10909238248" x="9668.05" y="9535.54" type="dead_end"/>
    <node id="10909256282" x="8151.75" y="8485.81" type="dead_end"/>
    <node id="10909263365" x="7575.72" y="7364.34" type="priority"/>
    <node id="10909263366" x="7571.18" y="7353.02" type="right_before_left"/>
    <node id="10909263688" x="7677.95" y="7493.78" type="priority"/>
    <node id="10909364507" x="7564.47" y="7409.92" type="dead_end"/>
    <node id="10909364514" x="7695.23" y="7489.37" type="priority"/>
    <node id="10909364515" x="7701.43" y="7495.04" type="dead_end"/>
    <node id="10909384305" x="7482.43" y="7377.12" type="priority"/>
    <node id="10909384308" x="7487.36" y="7403.42" type="priority"/>
    <node id="10909398548" x="7604.64" y="5764.57" type="dead_end"/>
    <node id="10909398549" x="7599.77" y="5770.27" type="dead_end"/>
    <node id="10909398561" x="7525.37" y="5484.12" type="dead_end"/>
    <node id="10909398588" x="7389.11" y="4901.38" type="dead_end"/>
    <node id="10909398594" x="7394.74" y="4920.40" type="dead_end"/>
    <node id="10909398595" x="7394.03" y="4899.32" type="dead_end"/>
    <node id="10909398597" x="7383.96" y="4870.29" type="dead_end"/>
    <node id="10909398598" x="7368.13" y="4840.20" type="dead_end"/>
    <node id="10909446342" x="7608.21" y="5779.89" type="dead_end"/>
    <node id="10911917317" x="11532.62" y="20924.70" type="priority"/>
    <node id="10911917318" x="11629.06" y="21285.50" type="priority"/>
    <node id="10911917320" x="11437.32" y="20750.31" type="priority"/>
    <node id="10911917322" x="11400.73" y="20775.67" type="right_before_left"/>
    <node id="10912573020" x="11578.16" y="21914.32" type="right_before_left"/>
    <node id="10912590067" x="11641.26" y="22169.56" type="priority"/>
    <node id="10914336422" x="10315.14" y="11142.67" type="priority"/>
    <node id="10916168388" x="15410.98" y="13299.04" type="dead_end"/>
    <node id="10916168391" x="15426.52" y="13302.77" type="priority"/>
    <node id="10916173929" x="15509.80" y="13261.55" type="priority"/>
    <node id="10916173930" x="15508.27" y="13259.96" type="dead_end"/>
    <node id="10916173931" x="15508.60" y="13256.34" type="dead_end"/>
    <node id="10916227772" x="7783.84" y="5197.80" type="priority"/>
    <node id="10916271975" x="8398.87" y="4681.72" type="priority"/>
    <node id="10916271979" x="8392.97" y="4721.48" type="priority"/>
    <node id="10916271980" x="8402.37" y="4724.27" type="priority"/>
    <node id="10916271984" x="8374.23" y="4751.75" type="priority"/>
    <node id="10916281465" x="8402.59" y="4823.42" type="priority"/>
    <node id="10916281469" x="8404.44" y="4928.22" type="priority"/>
    <node id="10916281472" x="8384.23" y="4989.68" type="priority"/>
    <node id="10916281476" x="8367.65" y="5037.89" type="priority"/>
    <node id="10916406216" x="7563.57" y="4036.54" type="priority"/>
    <node id="10916406219" x="7528.51" y="3973.81" type="priority"/>
    <node id="10916447516" x="7323.92" y="4861.22" type="dead_end"/>
    <node id="10916447518" x="7374.25" y="4851.84" type="dead_end"/>
    <node id="10916447519" x="7398.32" y="4920.05" type="priority"/>
    <node id="10916447520" x="7406.20" y="4920.55" type="dead_end"/>
    <node id="10916447523" x="7433.15" y="4924.26" type="dead_end"/>
    <node id="10916447524" x="7438.34" y="4922.38" type="dead_end"/>
    <node id="10916447546" x="7154.49" y="4455.19" type="dead_end"/>
    <node id="10916447553" x="7076.95" y="4272.19" type="dead_end"/>
    <node id="10916447555" x="7419.24" y="3987.61" type="priority"/>
    <node id="10917820866" x="10710.42" y="10082.85" type="priority"/>
    <node id="10917820867" x="10710.50" y="10081.53" type="priority"/>
    <node id="10917820872" x="10679.76" y="10071.72" type="dead_end"/>
    <node id="10917850397" x="11540.84" y="10137.99" type="dead_end"/>
    <node id="10917850402" x="11535.89" y="10129.50" type="dead_end"/>
    <node id="10917881594" x="11016.01" y="10190.74" type="dead_end"/>
    <node id="10917881596" x="11023.55" y="10170.94" type="dead_end"/>
    <node id="10917881601" x="11031.83" y="10200.22" type="dead_end"/>
    <node id="10917881604" x="11031.73" y="10197.47" type="dead_end"/>
    <node id="10917923409" x="11227.61" y="10338.63" type="dead_end"/>
    <node id="10917938522" x="11210.13" y="10356.58" type="priority"/>
    <node id="10917938525" x="11056.56" y="10216.31" type="dead_end"/>
    <node id="10917938526" x="11042.40" y="10205.78" type="dead_end"/>
    <node id="10917938527" x="11026.46" y="10229.16" type="dead_end"/>
    <node id="10917938528" x="11024.57" y="10228.23" type="priority"/>
    <node id="10917938530" x="11015.50" y="10223.95" type="dead_end"/>
    <node id="10917955305" x="11013.82" y="10189.79" type="dead_end"/>
    <node id="10917955307" x="10990.41" y="10180.92" type="dead_end"/>
    <node id="10917982544" x="10255.36" y="9944.14" type="dead_end"/>
    <node id="10917993366" x="11532.45" y="10178.07" type="dead_end"/>
    <node id="10920169085" x="6990.19" y="3644.10" type="priority"/>
    <node id="10920170642" x="6490.25" y="2798.67" type="right_before_left"/>
    <node id="10920200707" x="6686.79" y="3182.43" type="priority"/>
    <node id="10920212698" x="7186.33" y="4510.29" type="priority"/>
    <node id="10920215211" x="7145.88" y="4461.78" type="traffic_light" tl="10920215211"/>
    <node id="10920225205" x="12887.35" y="10045.83" type="priority"/>
    <node id="10920225230" x="12795.49" y="10370.65" type="priority"/>
    <node id="10920225233" x="12702.29" y="10078.92" type="priority"/>
    <node id="10920225262" x="12692.20" y="10181.80" type="priority"/>
    <node id="10920236578" x="7407.62" y="5301.95" type="traffic_light" tl="10920236578"/>
    <node id="10920236580" x="7340.83" y="5176.73" type="priority"/>
    <node id="10920236582" x="7355.07" y="5175.69" type="priority"/>
    <node id="10920236584" x="7337.24" y="5172.40" type="priority"/>
    <node id="10921240929" x="7404.36" y="6745.47" type="dead_end"/>
    <node id="10921309251" x="7641.38" y="7466.00" type="priority"/>
    <node id="10922667520" x="9006.12" y="9150.98" type="right_before_left"/>
    <node id="10922667521" x="8980.04" y="9134.22" type="right_before_left"/>
    <node id="10922667522" x="8959.62" y="9121.47" type="priority"/>
    <node id="10922667527" x="8921.89" y="9096.91" type="priority"/>
    <node id="10922667537" x="8738.84" y="8983.66" type="right_before_left"/>
    <node id="10922667538" x="8509.29" y="8842.12" type="right_before_left"/>
    <node id="10922667549" x="8146.34" y="8598.85" type="dead_end"/>
    <node id="10922667550" x="8141.44" y="8599.53" type="dead_end"/>
    <node id="10922667551" x="8134.11" y="8594.78" type="priority"/>
    <node id="10922667553" x="8153.40" y="8498.96" type="priority"/>
    <node id="10922667557" x="8154.67" y="8489.13" type="priority"/>
    <node id="10922667559" x="8127.43" y="8482.71" type="dead_end"/>
    <node id="10922667561" x="8123.97" y="8484.26" type="priority"/>
    <node id="10922667562" x="8116.46" y="8486.13" type="dead_end"/>
    <node id="10922667563" x="8111.32" y="8486.17" type="dead_end"/>
    <node id="10922667569" x="8096.76" y="8382.35" type="dead_end"/>
    <node id="10924715842" x="10441.05" y="9966.43" type="priority"/>
    <node id="10924715845" x="10475.18" y="9883.82" type="priority"/>
    <node id="10929451227" x="9499.51" y="14351.02" type="dead_end"/>
    <node id="10929451231" x="9574.08" y="14254.85" type="dead_end"/>
    <node id="10929451232" x="9574.48" y="14254.33" type="dead_end"/>
    <node id="10937957876" x="10119.25" y="14325.73" type="traffic_light" tl="joinedS_10937957876_10937957877_9711090190" controlledInner="1056867533#1"/>
    <node id="10937957877" x="10124.57" y="14324.12" type="traffic_light" tl="joinedS_10937957876_10937957877_9711090190" controlledInner="1056867533#1"/>
    <node id="10940365627" x="6092.58" y="13243.60" type="priority"/>
    <node id="10965725965" x="9914.57" y="17103.41" type="priority"/>
    <node id="10965725969" x="9972.92" y="17136.39" type="priority"/>
    <node id="10965725973" x="10620.60" y="16093.42" type="priority"/>
    <node id="10965725979" x="10744.22" y="16049.51" type="priority"/>
    <node id="10965746719" x="11046.44" y="15402.98" type="priority"/>
    <node id="10965763663" x="10846.71" y="19980.55" type="priority"/>
    <node id="10965763684" x="10538.64" y="19426.61" type="priority"/>
    <node id="10965797539" x="9994.86" y="18224.87" type="priority"/>
    <node id="10965797563" x="9893.12" y="17754.26" type="priority"/>
    <node id="10989081402" x="9961.48" y="17945.92" type="priority"/>
    <node id="10994145401" x="12162.80" y="9976.72" type="priority"/>
    <node id="11003246299" x="11627.30" y="10145.42" type="priority"/>
    <node id="11003246300" x="10937.77" y="10672.83" type="priority"/>
    <node id="11003246301" x="10790.66" y="10837.02" type="priority"/>
    <node id="11003246302" x="11454.80" y="9616.17" type="priority"/>
    <node id="11024884161" x="14340.61" y="15152.88" type="right_before_left"/>
    <node id="11024884176" x="14610.70" y="15629.12" type="right_before_left"/>
    <node id="11062946589" x="16411.22" y="15431.70" type="dead_end"/>
    <node id="11062946599" x="16456.22" y="15323.04" type="dead_end"/>
    <node id="11062972046" x="16134.76" y="15336.66" type="right_before_left"/>
    <node id="11094176800" x="6055.17" y="14019.49" type="right_before_left"/>
    <node id="11094181914" x="5618.77" y="14076.55" type="priority"/>
    <node id="11094181927" x="6215.21" y="14072.06" type="priority"/>
    <node id="11094181928" x="5763.32" y="14075.37" type="right_before_left"/>
    <node id="11094205096" x="3719.20" y="16973.17" type="right_before_left"/>
    <node id="11094211465" x="8062.10" y="13512.37" type="right_before_left"/>
    <node id="11094211466" x="7861.03" y="13897.06" type="right_before_left"/>