<?xml version="1.0" encoding="UTF-8"?>

<!-- generated on 2025-11-19T15:07:54.118095+01:00 by Eclipse SUMO netconvert 1.25.0
<netconvertConfiguration xmlns:xsi="http://www.w3.org/2001/XMLSchema-instance" xsi:noNamespaceSchemaLocation="http://sumo.dlr.de/xsd/netconvertConfiguration.xsd">

    <input>
        <sumo-net-file value="andorra.net.xml"/>
    </input>

    <output>
        <plain-output-prefix value="andorra/andorra"/>
    </output>

    <processing>
        <geometry.min-radius.fix.railways value="false"/>
        <geometry.avoid-overlap value="false"/>
        <geometry.max-grade.fix value="false"/>
        <offset.disable-normalization value="true"/>
        <lefthand value="0"/>
    </processing>

    <tls_building>
        <tls.ignore-internal-junction-jam value="1"/>
    </tls_building>

    <junctions>
        <no-turnarounds value="true"/>
        <junctions.corner-detail value="5"/>
        <junctions.limit-turn-speed value="5.50"/>
        <rectangular-lane-cut value="0"/>
    </junctions>

    <pedestrian>
        <walkingareas value="0"/>
    </pedestrian>

</netconvertConfiguration>
-->

<connections version="1.20" xmlns:xsi="http://www.w3.org/2001/XMLSchema-instance" xsi:noNamespaceSchemaLocation="http://sumo.dlr.de/xsd/connections_file.xsd">
    <connection from="-1001978800#0" to="444542966#1" fromLane="0" toLane="0"/>
    <connection from="-1001978800#0" to="-444542966#0" fromLane="0" toLane="0"/>
    <connection from="-1001978800#0" to="1001978800#0" fromLane="0" toLane="0"/>

    <connection from="-1001978800#1" to="-1001978800#0" fromLane="0" toLane="0"/>
    <connection from="-1001978800#1" to="1001978800#1" fromLane="0" toLane="0"/>

    <connection from="-1001978801" to="1001978801" fromLane="0" toLane="0"/>

    <connection from="-1001978802#0" to="444542967#0" fromLane="0" toLane="0" visibility="9.00"/>

    <connection from="-1001978802#1" to="-1001978802#0" fromLane="0" toLane="0"/>
    <connection from="-1001978802#1" to="1416567526" fromLane="0" toLane="0"/>

    <connection from="-1005048646#0" to="350914232#4" fromLane="0" toLane="0"/>
    <connection from="-1005048646#0" to="-1013181532#1" fromLane="0" toLane="0"/>
    <connection from="-1005048646#0" to="-350914232#3" fromLane="0" toLane="0"/>
    <connection from="-1005048646#0" to="1005048646#0" fromLane="0" toLane="0"/>

    <connection from="-1005048646#1" to="226117058#1" fromLane="0" toLane="0"/>
    <connection from="-1005048646#1" to="-1005048646#0" fromLane="0" toLane="0"/>
    <connection from="-1005048646#1" to="1005048646#1" fromLane="0" toLane="0"/>

    <connection from="-1005048646#2" to="-1005048646#1" fromLane="0" toLane="0"/>
    <connection from="-1005048646#2" to="1074662731" fromLane="0" toLane="0"/>
    <connection from="-1005048646#2" to="1005048646#2" fromLane="0" toLane="0"/>

    <connection from="-1005048646#3" to="-1005048646#2" fromLane="0" toLane="0"/>
    <connection from="-1005048646#3" to="226117058#2" fromLane="0" toLane="0"/>
    <connection from="-1005048646#3" to="1005048646#3" fromLane="0" toLane="0"/>

    <connection from="-1005048661#0" to="386175632#1" fromLane="0" toLane="0"/>
    <connection from="-1005048661#0" to="-386175632#0" fromLane="0" toLane="0"/>
    <connection from="-1005048661#0" to="1005048661#0" fromLane="0" toLane="0"/>

    <connection from="-1005048662" to="-1005048661#0" fromLane="0" toLane="0"/>
    <connection from="-1005048662" to="1013181749#0" fromLane="0" toLane="0"/>
    <connection from="-1005048662" to="1013181532#0" fromLane="0" toLane="0"/>
    <connection from="-1005048662" to="1005048661#1" fromLane="0" toLane="0"/>

    <connection from="-1005493675#0" to="133875860#0" fromLane="0" toLane="0"/>
    <connection from="-1005493675#0" to="1005493675#0" fromLane="0" toLane="0"/>

    <connection from="-1005493675#1" to="-1005493675#0" fromLane="0" toLane="0"/>
    <connection from="-1005493675#1" to="-1079684706#1" fromLane="0" toLane="0"/>
    <connection from="-1005493675#1" to="1005493675#1" fromLane="0" toLane="0"/>

    <connection from="-1005814137" to="1005814137" fromLane="0" toLane="0"/>

    <connection from="-1013181532#0" to="1005048661#1" fromLane="0" toLane="0"/>
    <connection from="-1013181532#0" to="-1005048661#0" fromLane="0" toLane="0"/>
    <connection from="-1013181532#0" to="1013181749#0" fromLane="0" toLane="0"/>
    <connection from="-1013181532#0" to="1013181532#0" fromLane="0" toLane="0"/>

    <connection from="-1013181532#1" to="-1013181532#0" fromLane="0" toLane="0"/>
    <connection from="-1013181532#1" to="-1422866266" fromLane="0" toLane="0"/>
    <connection from="-1013181532#1" to="1013181532#1" fromLane="0" toLane="0"/>

    <connection from="-1013181749#0" to="1013181532#0" fromLane="0" toLane="0"/>
    <connection from="-1013181749#0" to="1005048661#1" fromLane="0" toLane="0"/>
    <connection from="-1013181749#0" to="-1005048661#0" fromLane="0" toLane="0"/>
    <connection from="-1013181749#0" to="1013181749#0" fromLane="0" toLane="0"/>

    <connection from="-1013181749#1" to="1422866266" fromLane="0" toLane="0"/>
    <connection from="-1013181749#1" to="-1013181749#0" fromLane="0" toLane="0"/>
    <connection from="-1013181749#1" to="1013181749#1" fromLane="0" toLane="0"/>

    <connection from="-1016814216#0" to="1016814217" fromLane="0" toLane="0"/>
    <connection from="-1016814216#0" to="1016814216#0" fromLane="0" toLane="0"/>

    <connection from="-1016814216#1" to="-1016814216#0" fromLane="0" toLane="0"/>
    <connection from="-1016814216#1" to="1016814216#1" fromLane="0" toLane="0"/>

    <connection from="-1016814217" to="1016814216#0" fromLane="0" toLane="0"/>
    <connection from="-1016814217" to="1016814217" fromLane="0" toLane="0"/>

    <connection from="-1016814218#0" to="1040455698#4" fromLane="0" toLane="0"/>
    <connection from="-1016814218#0" to="-1040455698#3" fromLane="0" toLane="0"/>
    <connection from="-1016814218#0" to="1016814218#0" fromLane="0" toLane="0"/>

    <connection from="-1016814218#1" to="25569661#1" fromLane="0" toLane="0"/>
    <connection from="-1016814218#1" to="-1016814218#0" fromLane="0" toLane="0"/>
    <connection from="-1016814218#1" to="-25569661#0" fromLane="0" toLane="0"/>
    <connection from="-1016814218#1" to="1016814218#1" fromLane="0" toLane="0"/>

    <connection from="-1016814218#2" to="-1016814218#1" fromLane="0" toLane="0"/>
    <connection from="-1016814218#2" to="1058271479" fromLane="0" toLane="0"/>
    <connection from="-1016814218#2" to="1016814218#2" fromLane="0" toLane="0"/>

    <connection from="-1016814218#3" to="-399371626" fromLane="0" toLane="0"/>
    <connection from="-1016814218#3" to="-1016814217" fromLane="0" toLane="0"/>
    <connection from="-1016814218#3" to="-1016814218#2" fromLane="0" toLane="0"/>
    <connection from="-1016814218#3" to="1016814218#3" fromLane="0" toLane="0"/>

    <connection from="-1024173478" to="-997957641" fromLane="0" toLane="0"/>

    <connection from="-1034793354" to="6281909#0" fromLane="0" toLane="0" keepClear="0"/>
    <connection from="-1034793354" to="1034793354" fromLane="0" toLane="0"/>

    <connection from="-1034793355" to="1034793355" fromLane="0" toLane="0"/>

    <connection from="-1034793356#0" to="1034793357#1" fromLane="0" toLane="0"/>
    <connection from="-1034793356#0" to="1034793358" fromLane="0" toLane="0"/>
    <connection from="-1034793356#0" to="-1034793357#0" fromLane="0" toLane="0"/>

    <connection from="-1034793356#1" to="1034793359" fromLane="0" toLane="0"/>
    <connection from="-1034793356#1" to="-1034793355" fromLane="0" toLane="0"/>
    <connection from="-1034793356#1" to="-1034793356#0" fromLane="0" toLane="0"/>
    <connection from="-1034793356#1" to="1034793356#1" fromLane="0" toLane="0"/>

    <connection from="-1034793357#0" to="1034793356#1" fromLane="0" toLane="0"/>
    <connection from="-1034793357#0" to="1034793359" fromLane="0" toLane="0"/>
    <connection from="-1034793357#0" to="-1034793355" fromLane="0" toLane="0"/>
    <connection from="-1034793357#0" to="-1034793356#0" fromLane="0" toLane="0"/>

    <connection from="-1034793357#1" to="1034793358" fromLane="0" toLane="0"/>
    <connection from="-1034793357#1" to="-1034793357#0" fromLane="0" toLane="0"/>
    <connection from="-1034793357#1" to="1034793357#1" fromLane="0" toLane="0"/>

    <connection from="-1034793358" to="-1034793357#0" fromLane="0" toLane="0"/>
    <connection from="-1034793358" to="1034793357#1" fromLane="0" toLane="0"/>
    <connection from="-1034793358" to="1034793358" fromLane="0" toLane="0"/>

    <connection from="-1034793359" to="-1034793355" fromLane="0" toLane="0"/>
    <connection from="-1034793359" to="-1034793356#0" fromLane="0" toLane="0"/>
    <connection from="-1034793359" to="1034793356#1" fromLane="0" toLane="0"/>
    <connection from="-1034793359" to="1034793359" fromLane="0" toLane="0"/>

    <connection from="-1040455698#0" to="-208585104#1" fromLane="0" toLane="0"/>
    <connection from="-1040455698#0" to="208585104#2" fromLane="0" toLane="0"/>
    <connection from="-1040455698#0" to="1040455698#0" fromLane="0" toLane="0"/>

    <connection from="-1040455698#1" to="1058271480#0" fromLane="0" toLane="0"/>
    <connection from="-1040455698#1" to="-1040455698#0" fromLane="0" toLane="0"/>
    <connection from="-1040455698#1" to="1040455698#1" fromLane="0" toLane="0"/>

    <connection from="-1040455698#2" to="-1040455698#1" fromLane="0" toLane="0"/>
    <connection from="-1040455698#2" to="-1058271479" fromLane="0" toLane="0"/>
    <connection from="-1040455698#2" to="1040455698#2" fromLane="0" toLane="0"/>

    <connection from="-1040455698#3" to="1058271481" fromLane="0" toLane="0"/>
    <connection from="-1040455698#3" to="-1040455698#2" fromLane="0" toLane="0"/>
    <connection from="-1040455698#3" to="1040455698#3" fromLane="0" toLane="0"/>

    <connection from="-1040455698#4" to="-1040455698#3" fromLane="0" toLane="0"/>
    <connection from="-1040455698#4" to="1016814218#0" fromLane="0" toLane="0"/>
    <connection from="-1040455698#4" to="1040455698#4" fromLane="0" toLane="0"/>

    <connection from="-1042149233#1" to="-34062881#1" fromLane="0" toLane="0"/>
    <connection from="-1042149233#1" to="918837176" fromLane="0" toLane="0"/>
    <connection from="-1042149233#1" to="-34063704" fromLane="0" toLane="0"/>
    <connection from="-1042149233#1" to="1042149233#0" fromLane="0" toLane="0"/>

    <connection from="-104330570#0" to="-1116342937" fromLane="0" toLane="0"/>
    <connection from="-104330570#0" to="-722195853#1" fromLane="0" toLane="0"/>
    <connection from="-104330570#0" to="1116342941" fromLane="0" toLane="0"/>

    <connection from="-104330615#0" to="-383732972#1" fromLane="0" toLane="0"/>
    <connection from="-104330615#0" to="-383732973#1" fromLane="0" toLane="0"/>
    <connection from="-104330615#0" to="104330615#0" fromLane="0" toLane="0"/>

    <connection from="-104330615#1" to="-104330615#0" fromLane="0" toLane="0"/>
    <connection from="-104330615#1" to="-359285705#1" fromLane="0" toLane="0"/>
    <connection from="-104330615#1" to="104330615#1" fromLane="0" toLane="0"/>

    <connection from="-104330615#2" to="-104330615#1" fromLane="0" toLane="0"/>
    <connection from="-104330615#2" to="-359290945" fromLane="0" toLane="0"/>
    <connection from="-104330615#2" to="104330615#2" fromLane="0" toLane="0"/>

    <connection from="-1043368445#0" to="-351920532#0" fromLane="0" toLane="0"/>
    <connection from="-1043368445#0" to="351920532#1" fromLane="0" toLane="0"/>
    <connection from="-1043368445#0" to="372501844" fromLane="0" toLane="0"/>

    <connection from="-1043368445#1" to="-1043368445#0" fromLane="0" toLane="0"/>
    <connection from="-1043368445#1" to="1174415459" fromLane="0" toLane="0"/>
    <connection from="-1043368445#1" to="1043368445#1" fromLane="0" toLane="0"/>

    <connection from="-1051719822#0" to="6197721#1" fromLane="0" toLane="0"/>
    <connection from="-1051719822#0" to="1051719822#0" fromLane="0" toLane="0"/>

    <connection from="-1051719826" to="24517626#2" fromLane="0" toLane="0"/>
    <connection from="-1051719826" to="-24517626#1" fromLane="0" toLane="0"/>
    <connection from="-1051719826" to="24517633" fromLane="0" toLane="0"/>

    <connection from="-1051721918" to="24060840#1" fromLane="0" toLane="0"/>
    <connection from="-1051721918" to="-24060840#0" fromLane="0" toLane="0"/>
    <connection from="-1051721918" to="1051721918" fromLane="0" toLane="0"/>

    <connection from="-1051767977" to="-24060840#1" fromLane="0" toLane="0"/>
    <connection from="-1051767977" to="24060840#2" fromLane="0" toLane="0"/>
    <connection from="-1051767977" to="1051767977" fromLane="0" toLane="0"/>

    <connection from="-1051767980" to="1051767980" fromLane="0" toLane="0"/>

    <connection from="-1051771587#0" to="24376812#1" fromLane="0" toLane="0"/>
    <connection from="-1051771587#0" to="-24376812#0" fromLane="0" toLane="0"/>
    <connection from="-1051771587#0" to="1051771587#0" fromLane="0" toLane="0"/>

    <connection from="-1051771587#1" to="-1058273619" fromLane="0" toLane="0"/>
    <connection from="-1051771587#1" to="-1051771587#0" fromLane="0" toLane="0"/>
    <connection from="-1051771587#1" to="1051771587#1" fromLane="0" toLane="0"/>

    <connection from="-1051771595#0" to="-24060840#5" fromLane="0" toLane="0"/>
    <connection from="-1051771595#0" to="24060840#6" fromLane="0" toLane="0"/>
    <connection from="-1051771595#0" to="1051771595#0" fromLane="0" toLane="0"/>

    <connection from="-1051771595#1" to="-1051771595#0" fromLane="0" toLane="0"/>
    <connection from="-1051771595#1" to="1051778539#0" fromLane="0" toLane="0"/>

    <connection from="-1051771595#2" to="1051771598" fromLane="0" toLane="0"/>
    <connection from="-1051771595#2" to="-1051771595#1" fromLane="0" toLane="0"/>

    <connection from="-1051771595#3" to="-1051771595#2" fromLane="0" toLane="0"/>

    <connection from="-1051771596" to="-1051771595#3" fromLane="0" toLane="0"/>
    <connection from="-1051771596" to="1051771597" fromLane="0" toLane="0"/>
    <connection from="-1051771596" to="1051771596" fromLane="0" toLane="0"/>

    <connection from="-1051771597" to="1051771596" fromLane="0" toLane="0"/>
    <connection from="-1051771597" to="-1051771595#3" fromLane="0" toLane="0"/>
    <connection from="-1051771597" to="1051771597" fromLane="0" toLane="0"/>

    <connection from="-1051771598" to="-1051771595#1" fromLane="0" toLane="0"/>
    <connection from="-1051771598" to="1051771595#2" fromLane="0" toLane="0"/>
    <connection from="-1051771598" to="1051771598" fromLane="0" toLane="0"/>

    <connection from="-1051778539#0" to="1051771595#1" fromLane="0" toLane="0"/>
    <connection from="-1051778539#0" to="-1051771595#0" fromLane="0" toLane="0"/>
    <connection from="-1051778539#0" to="1051778539#0" fromLane="0" toLane="0"/>

    <connection from="-1051778539#1" to="1058266794" fromLane="0" toLane="0"/>
    <connection from="-1051778539#1" to="-1051778539#0" fromLane="0" toLane="0"/>
    <connection from="-1051778539#1" to="1051778539#1" fromLane="0" toLane="0"/>

    <connection from="-1051778550" to="-6578449" fromLane="0" toLane="0"/>
    <connection from="-1051778550" to="24377558#0" fromLane="0" toLane="0"/>
    <connection from="-1051778550" to="1051778550" fromLane="0" toLane="0"/>

    <connection from="-1051784045" to="25416126#2" fromLane="0" toLane="0"/>
    <connection from="-1051784045" to="-25416126#1" fromLane="0" toLane="0"/>
    <connection from="-1051784045" to="1051784045" fromLane="0" toLane="0"/>

    <connection from="-1051784046" to="1051784047#1" fromLane="0" toLane="0"/>
    <connection from="-1051784046" to="-1051784047#0" fromLane="0" toLane="0"/>
    <connection from="-1051784046" to="1051784046" fromLane="0" toLane="0"/>

    <connection from="-1051784047#0" to="-25416126#1" fromLane="0" toLane="0"/>
    <connection from="-1051784047#0" to="1051784045" fromLane="0" toLane="0"/>

    <connection from="-1051784047#1" to="-1051784047#0" fromLane="0" toLane="0"/>
    <connection from="-1051784047#1" to="1051784046" fromLane="0" toLane="0"/>

    <connection from="-1051803186#0" to="1056848501#2" fromLane="0" toLane="0"/>
    <connection from="-1051803186#0" to="1051803186#0" fromLane="0" toLane="0"/>

    <connection from="-1051803187" to="-1051803186#0" fromLane="0" toLane="0"/>
    <connection from="-1051803187" to="1051803186#1" fromLane="0" toLane="0"/>
    <connection from="-1051803187" to="1051803187" fromLane="0" toLane="0"/>

    <connection from="-1052015162#0" to="-1052015162#4" fromLane="0" toLane="0"/>
    <connection from="-1052015162#0" to="-1052015162#4" fromLane="1" toLane="1"/>
    <connection from="-1052015162#0" to="1052015164" fromLane="1" toLane="1"/>
    <connection from="-1052015162#0" to="1052015162#5" fromLane="1" toLane="1"/>

    <connection from="-1052015162#1" to="-1052015162#0" fromLane="0" toLane="0"/>
    <connection from="-1052015162#1" to="-1052015162#0" fromLane="1" toLane="1"/>
    <connection from="-1052015162#1" to="1052015162#1" fromLane="1" toLane="1"/>

    <connection from="-1052015162#2" to="-1052015162#1" fromLane="0" toLane="0"/>
    <connection from="-1052015162#2" to="1052015162#2" fromLane="1" toLane="1"/>
    <connection from="-1052015162#2" to="-1052015162#1" fromLane="1" toLane="1"/>
    <connection from="-1052015162#2" to="24377663#0" fromLane="1" toLane="0"/>

    <connection from="-1052015162#3" to="-1052015162#2" fromLane="0" toLane="0"/>
    <connection from="-1052015162#3" to="-1052015162#2" fromLane="1" toLane="1"/>
    <connection from="-1052015162#3" to="1052015166#0" fromLane="1" toLane="1"/>
    <connection from="-1052015162#3" to="1052015162#3" fromLane="1" toLane="1"/>

    <connection from="-1052015162#4" to="-1052015162#3" fromLane="0" toLane="0"/>
    <connection from="-1052015162#4" to="-1052015162#3" fromLane="1" toLane="1"/>
    <connection from="-1052015162#4" to="1052015162#4" fromLane="1" toLane="1"/>

    <connection from="-1052015172#0" to="24913724#2" fromLane="0" toLane="0"/>
    <connection from="-1052015172#0" to="-24913724#1" fromLane="0" toLane="0"/>
    <connection from="-1052015172#0" to="1052015172#0" fromLane="0" toLane="0"/>

    <connection from="-1052015172#1" to="-1052015172#0" fromLane="0" toLane="0"/>
    <connection from="-1052015172#1" to="1052015172#1" fromLane="0" toLane="0"/>

    <connection from="-1052015172#2" to="1052015174" fromLane="0" toLane="0"/>
    <connection from="-1052015172#2" to="-1052015172#1" fromLane="0" toLane="0"/>
    <connection from="-1052015172#2" to="1052015172#2" fromLane="0" toLane="0"/>

    <connection from="-1052015172#3" to="1052015173" fromLane="0" toLane="0"/>
    <connection from="-1052015172#3" to="-1052015172#2" fromLane="0" toLane="0"/>
    <connection from="-1052015172#3" to="1052015172#3" fromLane="0" toLane="0"/>

    <connection from="-1052015173" to="-1052015172#2" fromLane="0" toLane="0"/>
    <connection from="-1052015173" to="1052015172#3" fromLane="0" toLane="0"/>
    <connection from="-1052015173" to="1052015173" fromLane="0" toLane="0"/>

    <connection from="-1052015174" to="-1052015172#1" fromLane="0" toLane="0"/>
    <connection from="-1052015174" to="1052015172#2" fromLane="0" toLane="0"/>
    <connection from="-1052015174" to="1052015174" fromLane="0" toLane="0"/>

    <connection from="-1052015175" to="1052015170#4" fromLane="0" toLane="0"/>
    <connection from="-1052015175" to="1052015175" fromLane="0" toLane="0"/>

    <connection from="-1052194746" to="24059351#1" fromLane="0" toLane="0"/>
    <connection from="-1052194746" to="-24059351#0" fromLane="0" toLane="0"/>
    <connection from="-1052194746" to="1052194746" fromLane="0" toLane="0"/>

    <connection from="-1052203181" to="-6584939#1" fromLane="0" toLane="0"/>
    <connection from="-1052203181" to="6584939#2" fromLane="0" toLane="0"/>
    <connection from="-1052203181" to="1052203181" fromLane="0" toLane="0"/>

    <connection from="-1052203191" to="6584939#3" fromLane="0" toLane="0"/>
    <connection from="-1052203191" to="-6584939#2" fromLane="0" toLane="0"/>
    <connection from="-1052203191" to="1052203191" fromLane="0" toLane="0"/>

    <connection from="-1052203192" to="1052203193" fromLane="0" toLane="0"/>
    <connection from="-1052203192" to="-1052203191" fromLane="0" toLane="0"/>
    <connection from="-1052203192" to="1052203192" fromLane="0" toLane="0"/>

    <connection from="-1052203193" to="-1052203191" fromLane="0" toLane="0"/>
    <connection from="-1052203193" to="1052203192" fromLane="0" toLane="0"/>
    <connection from="-1052203193" to="1052203193" fromLane="0" toLane="0"/>

    <connection from="-1052203194" to="6584939#1" fromLane="0" toLane="0"/>
    <connection from="-1052203194" to="-6584939#0" fromLane="0" toLane="0"/>
    <connection from="-1052203194" to="1052203194" fromLane="0" toLane="0"/>

    <connection from="-1052230265" to="28828385#3" fromLane="0" toLane="0"/>
    <connection from="-1052230265" to="-28828385#2" fromLane="0" toLane="0"/>
    <connection from="-1052230265" to="1052230265" fromLane="0" toLane="0"/>

    <connection from="-1052234230" to="320312558#2" fromLane="0" toLane="0"/>
    <connection from="-1052234230" to="-320312558#1" fromLane="0" toLane="0"/>
    <connection from="-1052234230" to="1052234230" fromLane="0" toLane="0"/>

    <connection from="-1052236158#0" to="1226559193#1" fromLane="0" toLane="0" visibility="9.00"/>

    <connection from="-1052236158#1" to="-1052236159#1" fromLane="0" toLane="0"/>
    <connection from="-1052236158#1" to="-1052236158#0" fromLane="0" toLane="0"/>
    <connection from="-1052236158#1" to="1052236158#1" fromLane="0" toLane="0"/>

    <connection from="-1052236159#1" to="1052236155#1" fromLane="0" toLane="0"/>
    <connection from="-1052236159#1" to="1052236159#0" fromLane="0" toLane="0"/>

    <connection from="-1052236164" to="-293157401#0" fromLane="0" toLane="0"/>
    <connection from="-1052236164" to="293157401#1" fromLane="0" toLane="0"/>
    <connection from="-1052236164" to="1052236164" fromLane="0" toLane="0"/>

    <connection from="-1052236166" to="23841127#1" fromLane="0" toLane="0"/>
    <connection from="-1052236166" to="-23841127#0" fromLane="0" toLane="0"/>
    <connection from="-1052236166" to="1052236166" fromLane="0" toLane="0"/>

    <connection from="-1052359024#0" to="1052236156#2" fromLane="0" toLane="0"/>
    <connection from="-1052359024#0" to="1052359024#0" fromLane="0" toLane="0"/>

    <connection from="-1052359024#1" to="-1052359026#0" fromLane="0" toLane="0"/>
    <connection from="-1052359024#1" to="-1052359024#0" fromLane="0" toLane="0"/>
    <connection from="-1052359024#1" to="1052359026#1" fromLane="0" toLane="0"/>
    <connection from="-1052359024#1" to="1052359024#1" fromLane="0" toLane="0"/>

    <connection from="-1052359024#2" to="1052359025" fromLane="0" toLane="0"/>
    <connection from="-1052359024#2" to="-1052359024#1" fromLane="0" toLane="0"/>
    <connection from="-1052359024#2" to="1052359024#2" fromLane="0" toLane="0"/>

    <connection from="-1052359025" to="-1052359024#1" fromLane="0" toLane="0"/>
    <connection from="-1052359025" to="1052359024#2" fromLane="0" toLane="0"/>
    <connection from="-1052359025" to="1052359025" fromLane="0" toLane="0"/>

    <connection from="-1052359026#0" to="1052236156#3" fromLane="0" toLane="0"/>
    <connection from="-1052359026#0" to="1052359026#0" fromLane="0" toLane="0"/>

    <connection from="-1052359026#1" to="1052359024#1" fromLane="0" toLane="0"/>
    <connection from="-1052359026#1" to="-1052359026#0" fromLane="0" toLane="0"/>
    <connection from="-1052359026#1" to="-1052359024#0" fromLane="0" toLane="0"/>
    <connection from="-1052359026#1" to="1052359026#1" fromLane="0" toLane="0"/>

    <connection from="-1052359026#2" to="-1052359026#1" fromLane="0" toLane="0"/>
    <connection from="-1052359026#2" to="1052359027" fromLane="0" toLane="0"/>
    <connection from="-1052359026#2" to="1052359026#2" fromLane="0" toLane="0"/>

    <connection from="-1052359027" to="1052359026#2" fromLane="0" toLane="0"/>
    <connection from="-1052359027" to="-1052359026#1" fromLane="0" toLane="0"/>
    <connection from="-1052359027" to="1052359027" fromLane="0" toLane="0"/>

    <connection from="-1052359032" to="-6592657#1" fromLane="0" toLane="0"/>

    <connection from="-1052359034" to="1052359034" fromLane="0" toLane="0"/>

    <connection from="-1054103472" to="-1054103473#2" fromLane="0" toLane="0"/>
    <connection from="-1054103472" to="371149006#0" fromLane="0" toLane="0"/>
    <connection from="-1054103472" to="1054103472" fromLane="0" toLane="0"/>

    <connection from="-1054103473#1" to="-957775203#1" fromLane="0" toLane="0"/>
    <connection from="-1054103473#1" to="-998016590" fromLane="0" toLane="0"/>
    <connection from="-1054103473#1" to="553709668#0" fromLane="0" toLane="0"/>
    <connection from="-1054103473#1" to="1054103473#0" fromLane="0" toLane="0"/>

    <connection from="-1054103473#2" to="-416573085" fromLane="0" toLane="0"/>
    <connection from="-1054103473#2" to="-1054103473#1" fromLane="0" toLane="0"/>
    <connection from="-1054103473#2" to="1054103473#2" fromLane="0" toLane="0"/>

    <connection from="-1055332359#0" to="1442109831#0" fromLane="0" toLane="0"/>
    <connection from="-1055332359#0" to="1055332359#0" fromLane="0" toLane="0"/>

    <connection from="-1055332359#1" to="-1055332359#0" fromLane="0" toLane="0"/>
    <connection from="-1055332359#1" to="1055332361#1" fromLane="0" toLane="0"/>
    <connection from="-1055332359#1" to="1055332359#1" fromLane="0" toLane="0"/>

    <connection from="-1055351464#0" to="176493159#1" fromLane="0" toLane="0"/>
    <connection from="-1055351464#0" to="-176493159#0" fromLane="0" toLane="0"/>
    <connection from="-1055351464#0" to="1055351464#0" fromLane="0" toLane="0"/>

    <connection from="-1055351464#1" to="-1055351464#0" fromLane="0" toLane="0"/>
    <connection from="-1055351464#1" to="1055351464#1" fromLane="0" toLane="0"/>

    <connection from="-1055351464#2" to="-1055351465" fromLane="0" toLane="0"/>
    <connection from="-1055351464#2" to="-1055351464#1" fromLane="0" toLane="0"/>
    <connection from="-1055351464#2" to="1055351464#2" fromLane="0" toLane="0"/>

    <connection from="-1055351464#3" to="-1055351466" fromLane="0" toLane="0"/>
    <connection from="-1055351464#3" to="-1055351464#2" fromLane="0" toLane="0"/>
    <connection from="-1055351464#3" to="-1306649785" fromLane="0" toLane="0"/>
    <connection from="-1055351464#3" to="1055351464#3" fromLane="0" toLane="0"/>

    <connection from="-1055351464#4" to="-1055351467" fromLane="0" toLane="0"/>
    <connection from="-1055351464#4" to="-1055351464#3" fromLane="0" toLane="0"/>
    <connection from="-1055351464#4" to="1055351464#4" fromLane="0" toLane="0"/>

    <connection from="-1055351464#5" to="-1055351464#4" fromLane="0" toLane="0"/>
    <connection from="-1055351464#5" to="1306649785" fromLane="0" toLane="0"/>
    <connection from="-1055351464#5" to="1055351464#5" fromLane="0" toLane="0"/>

    <connection from="-1055351464#6" to="1055351467" fromLane="0" toLane="0"/>
    <connection from="-1055351464#6" to="-1055351464#5" fromLane="0" toLane="0"/>
    <connection from="-1055351464#6" to="1055351464#6" fromLane="0" toLane="0"/>

    <connection from="-1055351465" to="1055351466" fromLane="0" toLane="0"/>
    <connection from="-1055351465" to="-1055351464#6" fromLane="0" toLane="0"/>
    <connection from="-1055351465" to="1055351464#7" fromLane="0" toLane="0"/>

    <connection from="-1055351466" to="-1055351464#6" fromLane="0" toLane="0"/>
    <connection from="-1055351466" to="1055351464#7" fromLane="0" toLane="0"/>
    <connection from="-1055351466" to="1055351466" fromLane="0" toLane="0"/>

    <connection from="-1055351467" to="-1055351464#5" fromLane="0" toLane="0"/>
    <connection from="-1055351467" to="1055351464#6" fromLane="0" toLane="0"/>
    <connection from="-1055351467" to="1055351467" fromLane="0" toLane="0"/>

    <connection from="-1055523834#0" to="1055523834#0" fromLane="0" toLane="0"/>

    <connection from="-1055523834#1" to="-1055523835" fromLane="0" toLane="0"/>
    <connection from="-1055523834#1" to="-1055523834#0" fromLane="0" toLane="0"/>
    <connection from="-1055523834#1" to="1055523834#1" fromLane="0" toLane="0"/>

    <connection from="-1055523835" to="-385383495#1" fromLane="0" toLane="0"/>
    <connection from="-1055523835" to="385383495#2" fromLane="0" toLane="0"/>
    <connection from="-1055523835" to="1055523835" fromLane="0" toLane="0"/>

    <connection from="-1055562835" to="361847682" fromLane="0" toLane="0"/>
    <connection from="-1055562835" to="-176692956#1" fromLane="0" toLane="0"/>
    <connection from="-1055562835" to="176692956#2" fromLane="0" toLane="0"/>

    <connection from="-1055562836" to="-1055562835" fromLane="0" toLane="0"/>

    <connection from="-1055562837" to="-1055562838" fromLane="0" toLane="0"/>

    <connection from="-1055562838" to="-176693323" fromLane="0" toLane="0"/>

    <connection from="-1055562847#0" to="1055562851" fromLane="0" toLane="0"/>
    <connection from="-1055562847#0" to="-1055562849#0" fromLane="0" toLane="0"/>
    <connection from="-1055562847#0" to="1055562849#1" fromLane="0" toLane="0"/>

    <connection from="-1055562847#1" to="1055562847#1" fromLane="0" toLane="0"/>
    <connection from="-1055562847#1" to="-1055562847#0" fromLane="0" toLane="0"/>
    <connection from="-1055562847#1" to="-1055562848" fromLane="0" toLane="0"/>

    <connection from="-1055562848" to="-1055562847#1" fromLane="0" toLane="0"/>

    <connection from="-1055562849#0" to="-656712854#0" fromLane="0" toLane="0"/>
    <connection from="-1055562849#0" to="656712854#1" fromLane="0" toLane="0"/>
    <connection from="-1055562849#0" to="1055562849#0" fromLane="0" toLane="0"/>
