<?xml version="1.0" encoding="UTF-8"?>

<!-- generated on 2025-11-19T15:07:54.552383+01:00 by Eclipse SUMO netconvert 1.25.0
<netconvertConfiguration xmlns:xsi="http://www.w3.org/2001/XMLSchema-instance" xsi:noNamespaceSchemaLocation="http://sumo.dlr.de/xsd/netconvertConfiguration.xsd">

    <input>
        <sumo-net-file value="andorra.net.xml"/>
    </input>

    <output>
        <plain-output-prefix value="andorra/andorra"/>
    </output>

    <processing>
        <geometry.min-radius.fix.railways value="false"/>
        <geometry.avoid-overlap value="false"/>
        <geometry.max-grade.fix value="false"/>
        <offset.disable-normalization value="true"/>
        <lefthand value="0"/>
    </processing>

    <tls_building>
        <tls.ignore-internal-junction-jam value="1"/>
    </tls_building>

    <junctions>
        <no-turnarounds value="true"/>
        <junctions.corner-detail value="5"/>
        <junctions.limit-turn-speed value="5.50"/>
        <rectangular-lane-cut value="0"/>
    </junctions>

    <pedestrian>
        <walkingareas value="0"/>
    </pedestrian>

</netconvertConfiguration>
-->

<tlLogics version="1.20" xmlns:xsi="http://www.w3.org/2001/XMLSchema-instance" xsi:noNamespaceSchemaLocation="http://sumo.dlr.de/xsd/tllogic_file.xsd">
    <tlLogic id="10920215211" type="static" programID="0" offset="0">
        <phase duration="82" state="GGGG"/>
        <phase duration="3"  state="yyyy"/>
        <phase duration="5"  state="rrrr"/>
    </tlLogic>
    <tlLogic id="10920236578" type="static" programID="0" offset="0">
        <phase duration="82" state="GGG"/>
        <phase duration="3"  state="yyy"/>
        <phase duration="5"  state="rrr"/>
    </tlLogic>
    <tlLogic id="11481003239" type="static" programID="0" offset="0">
        <phase duration="82" state="G"/>
        <phase duration="3"  state="y"/>
        <phase duration="5"  state="r"/>
    </tlLogic>
    <tlLogic id="11481003240" type="static" programID="0" offset="0">
        <phase duration="82" state="G"/>
        <phase duration="3"  state="y"/>
        <phase duration="5"  state="r"/>
    </tlLogic>
    <tlLogic id="11481003241" type="static" programID="0" offset="0">
        <phase duration="82" state="G"/>
        <phase duration="3"  state="y"/>
        <phase duration="5"  state="r"/>
    </tlLogic>
    <tlLogic id="12452948536" type="static" programID="0" offset="0">
        <phase duration="82" state="GG"/>
        <phase duration="3"  state="yy"/>
        <phase duration="5"  state="rr"/>
    </tlLogic>
    <tlLogic id="12453409027" type="static" programID="0" offset="0">
        <phase duration="79" state="GG"/>
        <phase duration="6"  state="yy"/>
        <phase duration="5"  state="rr"/>
    </tlLogic>
    <tlLogic id="12453409053" type="static" programID="0" offset="0">
        <phase duration="79" state="GG"/>
        <phase duration="6"  state="yy"/>
        <phase duration="5"  state="rr"/>
    </tlLogic>
    <tlLogic id="12453409056" type="static" programID="0" offset="0">
        <phase duration="79" state="GG"/>
        <phase duration="6"  state="yy"/>
        <phase duration="5"  state="rr"/>
    </tlLogic>
    <tlLogic id="12453514339" type="static" programID="0" offset="0">
        <phase duration="82" state="GG"/>
        <phase duration="3"  state="yy"/>
        <phase duration="5"  state="rr"/>
    </tlLogic>
    <tlLogic id="277695167" type="static" programID="0" offset="0">
        <phase duration="79" state="GGG"/>
        <phase duration="6"  state="yyy"/>
        <phase duration="5"  state="rrr"/>
    </tlLogic>
    <tlLogic id="277695545" type="static" programID="0" offset="0">
        <phase duration="79" state="GG"/>
        <phase duration="6"  state="yy"/>
        <phase duration="5"  state="rr"/>
    </tlLogic>
    <tlLogic id="2859333772" type="static" programID="0" offset="0">
        <phase duration="82" state="GG"/>
        <phase duration="3"  state="yy"/>
        <phase duration="5"  state="rr"/>
    </tlLogic>
    <tlLogic id="2878941237" type="static" programID="0" offset="0">
        <phase duration="82" state="G"/>
        <phase duration="3"  state="y"/>
        <phase duration="5"  state="r"/>
    </tlLogic>
    <tlLogic id="2926419110" type="static" programID="0" offset="0">
        <phase duration="15" state="GrrrrrrrrrrrrrrrrrGGGGGg"/>
        <phase duration="6"  state="Grrrrrrrrrrrrrrrrryyyyyy"/>
        <phase duration="17" state="GGggrrrrrrrrrGGGggrrrrrr"/>
        <phase duration="6"  state="yyyyrrrrrrrrrGyyyyrrrrrr"/>
        <phase duration="17" state="rrrrrrrrrGGGGGrrrrrrrrrr"/>
        <phase duration="6"  state="rrrrrrrrryyyGyrrrrrrrrrr"/>
        <phase duration="17" state="rrrrGGGGgrrrGrrrrrrrrrrr"/>
        <phase duration="6"  state="rrrryyyyyrrryrrrrrrrrrrr"/>
    </tlLogic>
    <tlLogic id="3268159715" type="static" programID="0" offset="0">
        <phase duration="82" state="G"/>
        <phase duration="3"  state="y"/>
        <phase duration="5"  state="r"/>
    </tlLogic>
    <tlLogic id="337767559" type="static" programID="0" offset="0">
        <phase duration="82" state="GG"/>
        <phase duration="3"  state="yy"/>
        <phase duration="5"  state="rr"/>
    </tlLogic>
    <tlLogic id="3743097626" type="static" programID="0" offset="0">
        <phase duration="82" state="G"/>
        <phase duration="3"  state="y"/>
        <phase duration="5"  state="r"/>
    </tlLogic>
    <tlLogic id="3743097643" type="static" programID="0" offset="0">
        <phase duration="82" state="GG"/>
        <phase duration="3"  state="yy"/>
        <phase duration="5"  state="rr"/>
    </tlLogic>
    <tlLogic id="5044301926" type="static" programID="0" offset="0">
        <phase duration="82" state="GG"/>
        <phase duration="3"  state="yy"/>
        <phase duration="5"  state="rr"/>
    </tlLogic>
    <tlLogic id="5044301927" type="static" programID="0" offset="0">
        <phase duration="82" state="G"/>
        <phase duration="3"  state="y"/>
        <phase duration="5"  state="r"/>
    </tlLogic>
    <tlLogic id="51400250" type="static" programID="0" offset="0">
        <phase duration="82" state="GG"/>
        <phase duration="3"  state="yy"/>
        <phase duration="5"  state="rr"/>
    </tlLogic>
    <tlLogic id="5141025372" type="static" programID="0" offset="0">
        <phase duration="82" state="GGG"/>
        <phase duration="3"  state="yyy"/>
        <phase duration="5"  state="rrr"/>
    </tlLogic>
    <tlLogic id="5141025381" type="static" programID="0" offset="0">
        <phase duration="82" state="GG"/>
        <phase duration="3"  state="yy"/>
        <phase duration="5"  state="rr"/>
    </tlLogic>
    <tlLogic id="51581874" type="static" programID="0" offset="0">
        <phase duration="82" state="GG"/>
        <phase duration="3"  state="yy"/>
        <phase duration="5"  state="rr"/>
    </tlLogic>
    <tlLogic id="5548816118" type="static" programID="0" offset="0">
        <phase duration="80" state="GGGG"/>
        <phase duration="5"  state="yyyy"/>
        <phase duration="5"  state="rrrr"/>
    </tlLogic>
    <tlLogic id="9227675022" type="static" programID="0" offset="0">
        <phase duration="82" state="GG"/>
        <phase duration="3"  state="yy"/>
        <phase duration="5"  state="rr"/>
    </tlLogic>
    <tlLogic id="9227675023" type="static" programID="0" offset="0">
        <phase duration="82" state="GG"/>
        <phase duration="3"  state="yy"/>
        <phase duration="5"  state="rr"/>
    </tlLogic>
    <tlLogic id="9670001094" type="static" programID="0" offset="0">
        <phase duration="82" state="G"/>
        <phase duration="3"  state="y"/>
        <phase duration="5"  state="r"/>
    </tlLogic>
    <tlLogic id="9699458380" type="static" programID="0" offset="0">
        <phase duration="82" state="G"/>
        <phase duration="3"  state="y"/>
        <phase duration="5"  state="r"/>
    </tlLogic>
    <tlLogic id="9726041179" type="static" programID="0" offset="0">
        <phase duration="79" state="G"/>
        <phase duration="6"  state="y"/>
        <phase duration="5"  state="r"/>
    </tlLogic>
    <tlLogic id="joinedS_10209152200_12453409025_12453409026" type="static" programID="0" offset="0">
        <phase duration="40" state="rrGGGG"/>
        <phase duration="5"  state="rrGyGG"/>
        <phase duration="40" state="GgGrGG"/>
        <phase duration="5"  state="yyGrGG"/>
    </tlLogic>
    <tlLogic id="joinedS_10909228108_10909228109" type="static" programID="0" offset="0">
        <phase duration="39" state="rrrrrrGGGrrrGGGGrrr"/>
        <phase duration="6"  state="rrrrrryyyrrryyyyrrr"/>
        <phase duration="39" state="GggGGgrrrGGgrrrrGgg"/>
        <phase duration="6"  state="yyyyyyrrryyyrrrryyy"/>
    </tlLogic>
    <tlLogic id="joinedS_10937957876_10937957877_9711090190" type="static" programID="0" offset="0">
        <phase duration="90" state="GGGGG"/>
    </tlLogic>
    <tlLogic id="joinedS_12201032238_1579330447" type="static" programID="0" offset="0">
        <phase duration="27" state="GGGGgGrrr"/>
        <phase duration="3"  state="GGGGgyrrr"/>
        <phase duration="27" state="GGGGgrrGg"/>
        <phase duration="3"  state="GGGyyrryy"/>
        <phase duration="27" state="GGGrrGGrr"/>
        <phase duration="3"  state="GGGrrGyrr"/>
    </tlLogic>
    <tlLogic id="joinedS_12452948538_12453409016_12453409019" type="static" programID="0" offset="0">
        <phase duration="40" state="GgGgGGGr"/>
        <phase duration="5"  state="ygGyGGyr"/>
        <phase duration="40" state="rgGrGGrG"/>
        <phase duration="5"  state="rgGrGGry"/>
    </tlLogic>
    <tlLogic id="joinedS_354962410_9711043464" type="static" programID="0" offset="0">
        <phase duration="81" state="GGG"/>
        <phase duration="4"  state="yyy"/>
        <phase duration="5"  state="rrr"/>
    </tlLogic>

    <connection from="-1056147648" to="24715008#0" fromLane="0" toLane="0" tl="joinedS_12201032238_1579330447" linkIndex="7"/>
    <connection from="-1056147648" to="1056147648" fromLane="0" toLane="0" tl="joinedS_12201032238_1579330447" linkIndex="8"/>
    <connection from="-1174068263#1" to="-1174068263#0" fromLane="0" toLane="0" tl="joinedS_10909228108_10909228109" linkIndex="16"/>
    <connection from="-1174068263#1" to="1055599468#1" fromLane="0" toLane="1" tl="joinedS_10909228108_10909228109" linkIndex="17"/>
    <connection from="-1174068263#1" to="1174068263#1" fromLane="0" toLane="0" tl="joinedS_10909228108_10909228109" linkIndex="18"/>
    <connection from="-1174068263#2" to="1055599469#1" fromLane="0" toLane="0" tl="joinedS_10909228108_10909228109" linkIndex="3"/>
    <connection from="-1174068263#2" to="-1174068263#1" fromLane="0" toLane="0" tl="joinedS_10909228108_10909228109" linkIndex="4"/>
    <connection from="-1174068263#2" to="1174068263#2" fromLane="0" toLane="0" tl="joinedS_10909228108_10909228109" linkIndex="5"/>
    <connection from="-1357524357#2" to="-1357524357#1" fromLane="0" toLane="0" tl="joinedS_10937957876_10937957877_9711090190" linkIndex="1"/>
    <connection from="-1357528894" to="176492461" fromLane="0" toLane="0" tl="2926419110" linkIndex="14"/>
    <connection from="-1357528894" to="-1174068258#1" fromLane="0" toLane="0" tl="2926419110" linkIndex="15"/>
    <connection from="-1357528894" to="-6182289#3" fromLane="0" toLane="0" tl="2926419110" linkIndex="16"/>
    <connection from="-1357528894" to="1357528894" fromLane="0" toLane="0" tl="2926419110" linkIndex="17"/>
    <connection from="-1382745634#1" to="-1382745634#0" fromLane="0" toLane="0" tl="5548816118" linkIndex="0"/>
    <connection from="-1382745634#1" to="-1382745634#0" fromLane="1" toLane="1" tl="5548816118" linkIndex="1"/>
    <connection from="-1386617798#12" to="-1386617798#11" fromLane="0" toLane="0" tl="2859333772" linkIndex="1"/>
    <connection from="-24374052#3" to="-24374052#1" fromLane="0" toLane="0" tl="51581874" linkIndex="1"/>
    <connection from="-24714743#3" to="-24714743#1" fromLane="0" toLane="0" tl="joinedS_12201032238_1579330447" linkIndex="2"/>
    <connection from="-24715008#0" to="1056147648" fromLane="0" toLane="0" tl="joinedS_12201032238_1579330447" linkIndex="3"/>
    <connection from="-24715008#0" to="24715008#0" fromLane="0" toLane="0" tl="joinedS_12201032238_1579330447" linkIndex="4"/>
    <connection from="-274816512" to="1346420395#0" fromLane="0" toLane="0" tl="337767559" linkIndex="0"/>
    <connection from="-371233770#5" to="-371233770#4" fromLane="0" toLane="0" tl="10920215211" linkIndex="0"/>
    <connection from="-371233770#5" to="-371233770#4" fromLane="1" toLane="1" tl="10920215211" linkIndex="1"/>
    <connection from="-383735778" to="1346420393" fromLane="0" toLane="0" tl="joinedS_10209152200_12453409025_12453409026" linkIndex="0"/>
    <connection from="-383735778" to="383735778" fromLane="0" toLane="0" tl="joinedS_10209152200_12453409025_12453409026" linkIndex="1"/>
    <connection from="-682628184#4" to="-682628184#3" fromLane="0" toLane="0" tl="3743097643" linkIndex="1"/>
    <connection from="-984719575#1" to="-984719575#0" fromLane="0" toLane="0" tl="10920236578" linkIndex="0"/>
    <connection from="-984719575#1" to="-984719575#0" fromLane="1" toLane="1" tl="10920236578" linkIndex="1"/>
    <connection from="-984719575#2" to="-984719575#1" fromLane="0" toLane="0" tl="5141025372" linkIndex="0"/>
    <connection from="-984719575#2" to="-984719575#1" fromLane="1" toLane="1" tl="5141025372" linkIndex="1"/>
    <connection from="1055599468#0" to="-1174068263#0" fromLane="0" toLane="0" tl="joinedS_10909228108_10909228109" linkIndex="12"/>
    <connection from="1055599468#0" to="1055599468#1" fromLane="0" toLane="0" tl="joinedS_10909228108_10909228109" linkIndex="13"/>
    <connection from="1055599468#0" to="1055599468#1" fromLane="1" toLane="1" tl="joinedS_10909228108_10909228109" linkIndex="14"/>
    <connection from="1055599468#0" to="1174068263#1" fromLane="1" toLane="0" tl="joinedS_10909228108_10909228109" linkIndex="15"/>
    <connection from="1055599469#0" to="1174068263#2" fromLane="0" toLane="0" tl="joinedS_10909228108_10909228109" linkIndex="6"/>
    <connection from="1055599469#0" to="1055599469#1" fromLane="0" toLane="0" tl="joinedS_10909228108_10909228109" linkIndex="7"/>
    <connection from="1055599469#0" to="-1174068263#1" fromLane="0" toLane="0" tl="joinedS_10909228108_10909228109" linkIndex="8"/>
    <connection from="1055864771" to="-1174068258#1" fromLane="0" toLane="0" tl="2926419110" linkIndex="9"/>
    <connection from="1055864771" to="-6182289#3" fromLane="0" toLane="0" tl="2926419110" linkIndex="10"/>
    <connection from="1055864771" to="1357528894" fromLane="1" toLane="0" tl="2926419110" linkIndex="11"/>
    <connection from="1055864771" to="225345362" fromLane="1" toLane="0" tl="2926419110" linkIndex="13"/>
    <connection from="1055864771" to="176492461" fromLane="1" toLane="0" tl="2926419110" linkIndex="12"/>
    <connection from="1056147647" to="24715008#0" fromLane="0" toLane="0" tl="joinedS_12201032238_1579330447" linkIndex="5"/>
    <connection from="1056147647" to="1056147648" fromLane="0" toLane="0" tl="joinedS_12201032238_1579330447" linkIndex="6"/>
    <connection from="1056848496#0" to="1056848503#0" fromLane="0" toLane="0" tl="joinedS_354962410_9711043464" linkIndex="1"/>
    <connection from="1056848496#0" to="1056848496#2" fromLane="0" toLane="0" tl="joinedS_354962410_9711043464" linkIndex="2"/>
    <connection from="1056867533#1" to="1056867533#2" fromLane="0" toLane="0" tl="joinedS_10937957876_10937957877_9711090190" linkIndex="0"/>
    <connection from="1058451986#0" to="1058451986#2" fromLane="0" toLane="0" tl="277695545" linkIndex="0"/>
    <connection from="1058451986#0" to="1058451986#2" fromLane="1" toLane="1" tl="277695545" linkIndex="1"/>
    <connection from="1059146204" to="1059146203" fromLane="0" toLane="0" tl="3743097626" linkIndex="0"/>
    <connection from="1174068258#1" to="-6182289#3" fromLane="0" toLane="0" tl="2926419110" linkIndex="0"/>
    <connection from="1174068258#1" to="1357528894" fromLane="0" toLane="0" tl="2926419110" linkIndex="1"/>
    <connection from="1174068258#1" to="176492461" fromLane="0" toLane="1" tl="2926419110" linkIndex="2"/>
    <connection from="1174068258#1" to="-1174068258#1" fromLane="0" toLane="0" tl="2926419110" linkIndex="3"/>
    <connection from="1174068263#0" to="1055599468#1" fromLane="0" toLane="0" tl="joinedS_10909228108_10909228109" linkIndex="9"/>
    <connection from="1174068263#0" to="1174068263#1" fromLane="0" toLane="0" tl="joinedS_10909228108_10909228109" linkIndex="10"/>
    <connection from="1174068263#0" to="-1174068263#0" fromLane="0" toLane="0" tl="joinedS_10909228108_10909228109" linkIndex="11"/>
    <connection from="1174068263#1" to="1174068263#2" fromLane="0" toLane="0" tl="joinedS_10909228108_10909228109" linkIndex="0"/>
    <connection from="1174068263#1" to="1055599469#1" fromLane="0" toLane="0" tl="joinedS_10909228108_10909228109" linkIndex="1"/>
    <connection from="1174068263#1" to="-1174068263#1" fromLane="0" toLane="0" tl="joinedS_10909228108_10909228109" linkIndex="2"/>
    <connection from="1346420392" to="383735778" fromLane="0" toLane="0" tl="joinedS_10209152200_12453409025_12453409026" linkIndex="2"/>
    <connection from="1346420392" to="1346420393" fromLane="0" toLane="0" tl="joinedS_10209152200_12453409025_12453409026" linkIndex="3"/>
    <connection from="1346420395#0" to="1346420396" fromLane="0" toLane="0" tl="joinedS_12452948538_12453409016_12453409019" linkIndex="4"/>
    <connection from="1346420395#0" to="1346420395#1" fromLane="0" toLane="0" tl="joinedS_12452948538_12453409016_12453409019" linkIndex="5"/>
    <connection from="1346420395#1" to="1346420395#2" fromLane="0" toLane="0" tl="joinedS_12452948538_12453409016_12453409019" linkIndex="7"/>
    <connection from="1346420396" to="-587901997#1" fromLane="0" toLane="0" tl="joinedS_12452948538_12453409016_12453409019" linkIndex="2"/>
    <connection from="1346420396" to="1346420397" fromLane="0" toLane="0" tl="joinedS_12452948538_12453409016_12453409019" linkIndex="3"/>
    <connection from="1346420397" to="1346420395#2" fromLane="0" toLane="0" tl="joinedS_12452948538_12453409016_12453409019" linkIndex="6"/>
    <connection from="1357524356#1" to="1056867533#1" fromLane="0" toLane="0" tl="joinedS_10937957876_10937957877_9711090190" linkIndex="3"/>
    <connection from="1357524356#1" to="1056848501#0" fromLane="0" toLane="0" tl="joinedS_10937957876_10937957877_9711090190" linkIndex="4"/>
    <connection from="1357524357#0" to="1357524357#2" fromLane="0" toLane="0" tl="joinedS_10937957876_10937957877_9711090190" linkIndex="2"/>
    <connection from="1382745634#0" to="1382745634#1" fromLane="0" toLane="0" tl="5548816118" linkIndex="2"/>
    <connection from="1382745634#0" to="1382745634#1" fromLane="1" toLane="1" tl="5548816118" linkIndex="3"/>
    <connection from="1386617798#10" to="1386617798#12" fromLane="0" toLane="0" tl="2859333772" linkIndex="0"/>
    <connection from="173167050#0" to="173167050#2" fromLane="0" toLane="0" tl="9726041179" linkIndex="0"/>
    <connection from="173167051" to="184959614#1" fromLane="0" toLane="0" tl="joinedS_10209152200_12453409025_12453409026" linkIndex="4"/>
    <connection from="173167052#0" to="173167052#1" fromLane="0" toLane="0" tl="12453409053" linkIndex="0"/>
    <connection from="173167052#0" to="173167052#1" fromLane="1" toLane="1" tl="12453409053" linkIndex="1"/>
    <connection from="173167056" to="1303887286" fromLane="0" toLane="0" tl="277695167" linkIndex="1"/>
    <connection from="173167056" to="1303887286" fromLane="0" toLane="1" tl="277695167" linkIndex="2"/>
    <connection from="192465249#0" to="192465249#1" fromLane="0" toLane="0" tl="12453409056" linkIndex="0"/>
    <connection from="192465249#0" to="192465249#1" fromLane="1" toLane="1" tl="12453409056" linkIndex="1"/>
    <connection from="208585090#1" to="24364799#0" fromLane="0" toLane="0" tl="51400250" linkIndex="0"/>
    <connection from="208585090#1" to="24364799#0" fromLane="0" toLane="1" tl="51400250" linkIndex="1"/>
    <connection from="208585101#0" to="208585101#1" fromLane="0" toLane="0" tl="11481003239" linkIndex="0"/>
    <connection from="24374052#1" to="24374052#2" fromLane="0" toLane="0" tl="51581874" linkIndex="0"/>
    <connection from="24430806#0" to="24430806#1" fromLane="0" toLane="0" tl="11481003240" linkIndex="0"/>
    <connection from="24714743#0" to="24714743#2" fromLane="0" toLane="0" tl="joinedS_12201032238_1579330447" linkIndex="0"/>
    <connection from="24714743#0" to="24714743#2" fromLane="1" toLane="1" tl="joinedS_12201032238_1579330447" linkIndex="1"/>
    <connection from="25768868#0" to="25768868#1" fromLane="0" toLane="0" tl="5044301927" linkIndex="0"/>
    <connection from="25769122#4" to="25769122#5" fromLane="0" toLane="0" tl="5044301926" linkIndex="0"/>
    <connection from="25769122#4" to="25769122#5" fromLane="1" toLane="1" tl="5044301926" linkIndex="1"/>
    <connection from="25769122#5" to="25769122#6" fromLane="0" toLane="0" tl="12453514339" linkIndex="0"/>
    <connection from="25769122#5" to="25769122#6" fromLane="1" toLane="1" tl="12453514339" linkIndex="1"/>
    <connection from="284135555" to="1055576127" fromLane="0" toLane="0" tl="9699458380" linkIndex="0"/>
    <connection from="284135567#0" to="284135567#2" fromLane="0" toLane="0" tl="2878941237" linkIndex="0"/>
    <connection from="30567542#1" to="1346420394" fromLane="0" toLane="0" tl="12452948536" linkIndex="0"/>
    <connection from="30567542#1" to="1346420394" fromLane="0" toLane="1" tl="12452948536" linkIndex="1"/>
    <connection from="320312556#0" to="320312556#2" fromLane="0" toLane="0" tl="9670001094" linkIndex="0"/>
    <connection from="320312557#4" to="320312557#6" fromLane="0" toLane="0" tl="3268159715" linkIndex="0"/>
    <connection from="371233770#3" to="371233770#5" fromLane="0" toLane="0" tl="10920215211" linkIndex="2"/>
    <connection from="371233770#3" to="371233770#5" fromLane="1" toLane="1" tl="10920215211" linkIndex="3"/>
    <connection from="484626020#1" to="-1174068258#1" fromLane="0" toLane="0" tl="2926419110" linkIndex="4"/>
    <connection from="484626020#1" to="-6182289#3" fromLane="0" toLane="0" tl="2926419110" linkIndex="5"/>
    <connection from="484626020#1" to="1357528894" fromLane="0" toLane="0" tl="2926419110" linkIndex="6"/>
    <connection from="484626020#1" to="225345362" fromLane="0" toLane="0" tl="2926419110" linkIndex="7"/>
    <connection from="484626020#1" to="176492461" fromLane="0" toLane="1" tl="2926419110" linkIndex="8"/>
    <connection from="547794046#0" to="547794046#2" fromLane="0" toLane="0" tl="9227675022" linkIndex="0"/>
    <connection from="547794046#0" to="547794046#2" fromLane="1" toLane="1" tl="9227675022" linkIndex="1"/>
    <connection from="547794047#0" to="547794047#2" fromLane="0" toLane="0" tl="9227675023" linkIndex="0"/>
    <connection from="547794047#0" to="547794047#2" fromLane="1" toLane="1" tl="9227675023" linkIndex="1"/>
    <connection from="587901997#1" to="1346420397" fromLane="0" toLane="0" tl="joinedS_12452948538_12453409016_12453409019" linkIndex="0"/>
    <connection from="587901997#1" to="-587901997#1" fromLane="0" toLane="0" tl="joinedS_12452948538_12453409016_12453409019" linkIndex="1"/>
    <connection from="6182289#2" to="1357528894" fromLane="0" toLane="0" tl="2926419110" linkIndex="18"/>
    <connection from="6182289#2" to="225345362" fromLane="0" toLane="0" tl="2926419110" linkIndex="19"/>
    <connection from="6182289#2" to="176492461" fromLane="0" toLane="0" tl="2926419110" linkIndex="20"/>
    <connection from="6182289#2" to="176492461" fromLane="0" toLane="1" tl="2926419110" linkIndex="21"/>
    <connection from="6182289#2" to="-1174068258#1" fromLane="0" toLane="0" tl="2926419110" linkIndex="22"/>
    <connection from="6182289#2" to="-6182289#3" fromLane="0" toLane="0" tl="2926419110" linkIndex="23"/>
    <connection from="6182761#0" to="6182761#1" fromLane="0" toLane="0" tl="joinedS_10209152200_12453409025_12453409026" linkIndex="5"/>
    <connection from="6197721#5" to="31726467" fromLane="0" toLane="0" tl="joinedS_354962410_9711043464" linkIndex="0"/>
    <connection from="682628183" to="274816512" fromLane="0" toLane="0" tl="337767559" linkIndex="1"/>
    <connection from="682628184#3" to="682628184#4" fromLane="0" toLane="0" tl="3743097643" linkIndex="0"/>
    <connection from="759151104" to="-1058470011#1" fromLane="0" toLane="0" tl="277695167" linkIndex="0"/>
    <connection from="871726109#0" to="871726109#1" fromLane="0" toLane="0" tl="11481003241" linkIndex="0"/>
    <connection from="871726110#0" to="871726110#1" fromLane="0" toLane="0" tl="12453409027" linkIndex="0"/>
    <connection from="871726110#0" to="871726110#1" fromLane="1" toLane="1" tl="12453409027" linkIndex="1"/>
    <connection from="984719574#3" to="984719574#5" fromLane="0" toLane="0" tl="5141025381" linkIndex="0"/>
    <connection from="984719574#3" to="984719574#5" fromLane="1" toLane="1" tl="5141025381" linkIndex="1"/>
    <connection from="984719575#0" to="984719575#1" fromLane="0" toLane="0" tl="10920236578" linkIndex="2"/>
    <connection from="984719575#1" to="984719575#2" fromLane="0" toLane="0" tl="5141025372" linkIndex="2"/>
</tlLogics>
