<?xml version="1.0" encoding="UTF-8"?>

<!-- generated on 2025-04-29 23:59:07 by Eclipse SUMO netconvert Version 1.22.0
<netconvertConfiguration xmlns:xsi="http://www.w3.org/2001/XMLSchema-instance" xsi:noNamespaceSchemaLocation="http://sumo.dlr.de/xsd/netconvertConfiguration.xsd">

    <input>
        <sumo-net-file value="bussy_saint_georges/bussy_saint_georges.net.xml"/>
    </input>

    <output>
        <plain-output-prefix value="bussy_saint_georges/bussy_saint_georges"/>
    </output>

    <processing>
        <geometry.min-radius.fix.railways value="false"/>
        <geometry.max-grade.fix value="false"/>
        <offset.disable-normalization value="true"/>
        <lefthand value="0"/>
    </processing>

    <tls_building>
        <tls.ignore-internal-junction-jam value="1"/>
    </tls_building>

    <junctions>
        <no-turnarounds value="true"/>
        <junctions.corner-detail value="5"/>
        <junctions.limit-turn-speed value="5.50"/>
        <rectangular-lane-cut value="0"/>
    </junctions>

    <pedestrian>
        <walkingareas value="0"/>
    </pedestrian>

</netconvertConfiguration>
-->

<nodes version="1.20" xmlns:xsi="http://www.w3.org/2001/XMLSchema-instance" xsi:noNamespaceSchemaLocation="http://sumo.dlr.de/xsd/nodes_file.xsd">
    <location netOffset="-474925.99,-5406504.64" convBoundary="0.00,0.00,8346.87,5661.82" origBoundary="2.657941,48.811123,2.771971,48.862127" projParameter="+proj=utm +zone=31 +ellps=WGS84 +datum=WGS84 +units=m +no_defs"/>

    <node id="10084828894" x="1165.66" y="1083.79" type="priority"/>
    <node id="10094829066" x="4742.64" y="2664.26" type="right_before_left"/>
    <node id="10094829067" x="4760.66" y="2667.50" type="priority"/>
    <node id="10094829069" x="4949.07" y="2701.77" type="dead_end"/>
    <node id="10094829070" x="5281.25" y="2751.26" type="dead_end"/>
    <node id="10094829071" x="4795.41" y="2674.03" type="priority"/>
    <node id="10094829075" x="5367.07" y="2776.91" type="priority"/>
    <node id="10094829076" x="4948.43" y="2704.57" type="priority"/>
    <node id="10094829082" x="5070.16" y="2727.01" type="priority"/>
    <node id="10094829084" x="5273.37" y="2753.50" type="priority"/>
    <node id="10094829085" x="5281.09" y="2755.06" type="priority"/>
    <node id="10094829086" x="5324.57" y="2764.02" type="right_before_left"/>
    <node id="10094829088" x="5104.29" y="2733.18" type="right_before_left"/>
    <node id="10095310669" x="6000.75" y="3532.00" type="priority"/>
    <node id="10095310680" x="5829.98" y="3604.47" type="dead_end"/>
    <node id="10095397807" x="4676.56" y="2894.42" type="priority"/>
    <node id="10095397808" x="4678.32" y="2885.19" type="priority"/>
    <node id="10095463131" x="4809.68" y="2690.18" type="priority"/>
    <node id="10095463132" x="4811.93" y="2677.55" type="priority"/>
    <node id="10095470825" x="5168.36" y="2614.36" type="priority"/>
    <node id="10095470831" x="5158.52" y="2714.99" type="priority"/>
    <node id="10095470843" x="5290.96" y="2695.33" type="dead_end"/>
    <node id="10098490044" x="887.98" y="5258.40" type="dead_end"/>
    <node id="10098490045" x="768.57" y="5040.19" type="dead_end"/>
    <node id="10102793370" x="3519.73" y="2909.19" type="priority"/>
    <node id="10102793371" x="3516.86" y="2924.73" type="priority"/>
    <node id="10102793374" x="3481.47" y="2954.03" type="priority"/>
    <node id="10102829834" x="3482.14" y="2749.99" type="priority"/>
    <node id="10103022271" x="3626.52" y="2465.13" type="dead_end"/>
    <node id="10103022273" x="3709.10" y="2478.86" type="dead_end"/>
    <node id="10103022275" x="3717.36" y="2480.51" type="priority"/>
    <node id="10103022276" x="3713.38" y="2476.35" type="priority"/>
    <node id="10103022279" x="3732.90" y="2487.02" type="priority"/>
    <node id="10103022282" x="3814.90" y="2500.82" type="priority"/>
    <node id="10103022286" x="3829.19" y="2499.94" type="priority"/>
    <node id="10103022288" x="3832.13" y="2480.06" type="right_before_left"/>
    <node id="1025173283" x="5859.36" y="3411.22" type="priority"/>
    <node id="1025173284" x="5789.55" y="3784.63" type="priority"/>
    <node id="10265645604" x="4169.71" y="3402.33" type="priority"/>
    <node id="10267846856" x="3454.97" y="3491.26" type="priority"/>
    <node id="10267846859" x="3453.12" y="3587.91" type="priority"/>
    <node id="10267846862" x="3448.60" y="3703.64" type="right_before_left"/>
    <node id="10269289715" x="3632.38" y="2962.03" type="traffic_light" tl="joinedS_10269289715_276080655_7289262978_7289280594_#2more" controlledInner="-286595747#2 -710871898#0 286595747#2 710871898#0"/>
    <node id="10271132830" x="3899.10" y="3003.01" type="traffic_light" tl="joinedS_10271132830_1759258972_1759258989_1759259000_#2more" controlledInner="-296087333#5 -560395151#0 296087333#5 560395151#0"/>
    <node id="10271144921" x="3561.28" y="2901.69" type="priority"/>
    <node id="10282288746" x="644.88" y="1785.64" type="priority"/>
    <node id="1038287442" x="6131.32" y="4789.78" type="right_before_left"/>
    <node id="1038287443" x="6020.27" y="4942.69" type="priority"/>
    <node id="1038287486" x="5986.09" y="4939.89" type="priority"/>
    <node id="1038287513" x="5993.52" y="5019.65" type="priority"/>
    <node id="1038287527" x="6149.59" y="4761.46" type="priority"/>
    <node id="1039071148" x="4157.88" y="4560.38" type="priority"/>
    <node id="1039071162" x="4398.77" y="4919.60" type="priority"/>
    <node id="1039071167" x="4145.40" y="4572.62" type="priority"/>
    <node id="1039071176" x="4217.70" y="4756.64" type="priority"/>
    <node id="1039071213" x="4380.66" y="4645.09" type="priority"/>
    <node id="1039071241" x="4804.41" y="4847.76" type="priority"/>
    <node id="1039071262" x="4198.10" y="4498.32" type="priority"/>
    <node id="1039071269" x="4646.92" y="4840.57" type="priority"/>
    <node id="1039071277" x="4503.11" y="5046.81" type="priority"/>
    <node id="1039071285" x="4070.30" y="4534.45" type="priority"/>
    <node id="1039071325" x="4427.20" y="4928.98" type="priority"/>
    <node id="1039071327" x="4569.18" y="4695.67" type="priority"/>
    <node id="1039071330" x="4282.41" y="4748.85" type="priority"/>
    <node id="1039071381" x="4232.23" y="4966.10" type="priority"/>
    <node id="1039071400" x="4010.49" y="4484.84" type="priority"/>
    <node id="1039071408" x="4491.35" y="5004.77" type="priority"/>
    <node id="1039071418" x="4293.23" y="4816.29" type="priority"/>
    <node id="1039071433" x="4646.30" y="4906.21" type="priority"/>
    <node id="1039071439" x="4216.64" y="4807.93" type="priority"/>
    <node id="1039071449" x="4982.06" y="4893.62" type="priority"/>
    <node id="1039071505" x="4599.86" y="4919.32" type="priority"/>
    <node id="1039071525" x="4157.05" y="4766.16" type="priority"/>
    <node id="1039071531" x="4349.14" y="4514.62" type="priority"/>
    <node id="1039071593" x="4221.09" y="4500.01" type="priority"/>
    <node id="1039071613" x="4898.32" y="4874.18" type="priority"/>
    <node id="1039071618" x="4560.87" y="4855.39" type="priority"/>
    <node id="1039071722" x="4194.29" y="4598.16" type="priority"/>
    <node id="1039071749" x="4037.46" y="4619.58" type="priority"/>
    <node id="1039071752" x="4951.90" y="4822.01" type="priority"/>
    <node id="1039071763" x="4427.87" y="4759.11" type="priority"/>
    <node id="1039071799" x="4359.24" y="4508.65" type="priority"/>
    <node id="1039071803" x="4663.41" y="4947.45" type="priority"/>
    <node id="1039071836" x="4484.25" y="4861.11" type="priority"/>
    <node id="1039071842" x="4197.23" y="4522.36" type="priority"/>
    <node id="1039071851" x="4396.92" y="4794.76" type="right_before_left"/>
    <node id="1039071901" x="4287.91" y="4504.16" type="priority"/>
    <node id="1039071932" x="4144.43" y="4705.46" type="priority"/>
    <node id="1039071946" x="3955.03" y="4619.29" type="priority"/>
    <node id="1039071956" x="4962.65" y="4848.42" type="priority"/>
    <node id="1039072039" x="4731.03" y="4853.19" type="priority"/>
    <node id="1039072045" x="4319.83" y="4506.04" type="priority"/>
    <node id="1039072052" x="4540.91" y="4920.64" type="priority"/>
    <node id="1039072061" x="4299.66" y="4641.42" type="priority"/>
    <node id="1039072068" x="4310.85" y="4905.00" type="priority"/>
    <node id="1039072090" x="4422.55" y="4867.78" type="priority"/>
    <node id="1039072101" x="4236.39" y="4500.61" type="priority"/>
    <node id="1039072178" x="4129.47" y="4818.77" type="priority"/>
    <node id="1039072192" x="4360.75" y="4645.15" type="priority"/>
    <node id="1039072249" x="4073.34" y="4489.02" type="priority"/>
    <node id="1039072253" x="4617.01" y="4714.16" type="priority"/>
    <node id="1039072292" x="4298.34" y="4847.27" type="priority"/>
    <node id="1039072303" x="4234.21" y="4629.43" type="priority"/>
    <node id="1039072330" x="4263.18" y="4967.31" type="dead_end"/>
    <node id="1039072352" x="4739.92" y="4962.21" type="priority"/>
    <node id="1039072473" x="4233.18" y="4596.46" type="priority"/>
    <node id="1039072491" x="4351.30" y="4476.13" type="priority"/>
    <node id="1039072503" x="4239.15" y="4466.26" type="priority"/>
    <node id="1039072538" x="4262.31" y="4991.69" type="priority"/>
    <node id="1039072542" x="4126.58" y="4769.29" type="priority"/>
    <node id="1039072554" x="5216.29" y="5020.95" type="priority"/>
    <node id="1039072557" x="4192.28" y="4527.38" type="priority"/>
    <node id="1039072559" x="4073.20" y="4625.42" type="priority"/>
    <node id="1039072572" x="4996.39" y="4803.06" type="priority"/>
    <node id="1039072595" x="4122.05" y="4492.32" type="priority"/>
    <node id="1039072597" x="4641.74" y="4770.69" type="priority"/>
    <node id="1039072627" x="4188.79" y="4497.45" type="priority"/>
    <node id="1039351368" x="3724.25" y="4576.29" type="priority"/>
    <node id="1039351407" x="3429.40" y="4443.97" type="priority"/>
    <node id="1039351491" x="3592.45" y="4612.69" type="priority"/>
    <node id="1039351570" x="3491.07" y="4612.17" type="priority"/>
    <node id="1039351602" x="3573.16" y="4646.88" type="priority"/>
    <node id="1039351611" x="3418.76" y="4730.52" type="priority"/>
    <node id="1039351689" x="3451.42" y="4678.85" type="right_before_left"/>
    <node id="1039351691" x="3618.05" y="4457.18" type="dead_end"/>
    <node id="1039351772" x="3530.58" y="4558.94" type="priority"/>
    <node id="1039351783" x="3578.07" y="4626.73" type="priority"/>
    <node id="1039351934" x="3337.86" y="4691.47" type="priority"/>
    <node id="1039351937" x="3570.32" y="4609.12" type="priority"/>
    <node id="1039352012" x="3442.21" y="4409.54" type="priority"/>
    <node id="1039352021" x="3581.92" y="4611.13" type="priority"/>
    <node id="1039352073" x="3497.41" y="4648.62" type="priority"/>
    <node id="1039352095" x="3954.28" y="4629.68" type="priority"/>
    <node id="1039352100" x="3498.49" y="4513.05" type="priority"/>
    <node id="1039352148" x="3933.69" y="4477.90" type="dead_end"/>
    <node id="1039352163" x="3958.22" y="4587.14" type="priority"/>
    <node id="1039352194" x="3440.16" y="4619.15" type="priority"/>
    <node id="1041145023" x="2859.10" y="4859.06" type="dead_end"/>
    <node id="1041145220" x="2824.62" y="4750.64" type="dead_end"/>
    <node id="1041145223" x="3174.15" y="4874.19" type="priority"/>
    <node id="1041145398" x="2842.07" y="4674.23" type="dead_end"/>
    <node id="1041145409" x="4398.98" y="4580.35" type="priority"/>
    <node id="1041145417" x="2854.21" y="4881.56" type="priority"/>
    <node id="1041231808" x="1559.84" y="4882.20" type="right_before_left"/>
    <node id="1041231822" x="1054.27" y="4442.68" type="priority"/>
    <node id="1041231844" x="1192.12" y="4557.86" type="priority"/>
    <node id="1041231873" x="1395.98" y="5155.44" type="dead_end"/>
    <node id="1041231920" x="987.13" y="4399.50" type="priority"/>
    <node id="1041231938" x="1165.64" y="4646.01" type="priority"/>
    <node id="1041231940" x="1258.16" y="4690.96" type="priority"/>
    <node id="1041231944" x="1102.70" y="4531.98" type="priority"/>
    <node id="1041231963" x="1368.90" y="4460.35" type="priority"/>
    <node id="1041231964" x="1347.80" y="4452.72" type="priority"/>
    <node id="1041232006" x="1088.75" y="4567.73" type="right_before_left"/>
    <node id="1041232036" x="1024.93" y="4344.54" type="priority"/>
    <node id="1041232055" x="1158.63" y="4715.65" type="priority"/>
    <node id="1041232059" x="1219.76" y="4744.39" type="priority"/>
    <node id="1041232107" x="1003.80" y="4468.95" type="priority"/>
    <node id="1041232111" x="1327.47" y="4946.41" type="priority"/>
    <node id="1041232182" x="1114.51" y="4553.92" type="priority"/>
    <node id="1041232204" x="1379.15" y="4269.98" type="dead_end"/>
    <node id="1041232232" x="1133.34" y="4663.43" type="priority"/>
    <node id="1041232273" x="1082.94" y="4495.55" type="priority"/>
    <node id="1041232277" x="1262.06" y="4605.53" type="priority"/>
    <node id="1041232289" x="1664.85" y="4919.92" type="priority"/>
    <node id="1041232321" x="1074.24" y="4541.79" type="priority"/>
    <node id="1041232379" x="1184.57" y="4762.04" type="priority"/>
    <node id="1041232517" x="1364.05" y="4483.47" type="priority"/>
    <node id="1041232527" x="1193.36" y="4696.98" type="priority"/>
    <node id="1041232531" x="1274.11" y="4719.18" type="priority"/>
    <node id="1041232551" x="1034.28" y="4521.45" type="priority"/>
    <node id="10579139237" x="4840.45" y="2525.89" type="priority"/>
    <node id="10579163952" x="5014.87" y="2648.62" type="dead_end"/>
    <node id="10679531390" x="1933.30" y="1700.73" type="right_before_left"/>
    <node id="10694443813" x="6096.70" y="1915.86" type="priority"/>
    <node id="10694771659" x="3956.98" y="1767.77" type="right_before_left"/>
    <node id="10694771677" x="4157.79" y="1907.81" type="right_before_left"/>
    <node id="10694771696" x="3817.71" y="2001.83" type="priority"/>
    <node id="10792479528" x="925.88" y="5219.32" type="priority"/>
    <node id="10803682741" x="5763.78" y="4411.63" type="priority"/>
    <node id="10897625851" x="1826.82" y="4394.62" type="dead_end"/>
    <node id="10897625856" x="1489.76" y="4598.12" type="right_before_left"/>
    <node id="10897625858" x="1516.07" y="4617.25" type="priority"/>
    <node id="10897625955" x="1597.69" y="4540.30" type="priority"/>
    <node id="10897625965" x="1771.78" y="4585.80" type="priority"/>
    <node id="10897625967" x="1755.38" y="4583.19" type="right_before_left"/>
    <node id="10926049589" x="5056.51" y="2712.31" type="dead_end"/>
    <node id="10945802549" x="6214.25" y="4950.40" type="right_before_left"/>
    <node id="10945802551" x="6223.98" y="4937.60" type="priority"/>
    <node id="11130297258" x="4217.28" y="3193.65" type="priority"/>
    <node id="11130297262" x="4225.18" y="3152.83" type="priority"/>
    <node id="11218116299" x="6238.93" y="4920.87" type="priority"/>
    <node id="11220621121" x="3763.25" y="2794.29" type="dead_end"/>
    <node id="11220621122" x="3763.84" y="2807.06" type="right_before_left"/>
    <node id="11220621124" x="3682.95" y="2793.38" type="right_before_left"/>
    <node id="11220621126" x="3678.59" y="2788.61" type="right_before_left"/>
    <node id="11220621128" x="3677.87" y="2792.48" type="priority"/>
    <node id="11220657438" x="3814.49" y="2816.40" type="right_before_left"/>
    <node id="11220657494" x="3812.70" y="2808.86" type="priority"/>
    <node id="11220762168" x="3919.36" y="2829.74" type="priority"/>
    <node id="11220762169" x="3821.64" y="2804.82" type="priority"/>
    <node id="11221260753" x="3819.22" y="2804.41" type="priority"/>
    <node id="11221260779" x="3793.81" y="2966.25" type="priority"/>
    <node id="11221260780" x="3792.34" y="2965.99" type="priority"/>
    <node id="11221260787" x="4014.74" y="2818.26" type="dead_end"/>
    <node id="11221260789" x="3700.08" y="2838.78" type="priority"/>
    <node id="11221260800" x="3822.05" y="2813.77" type="priority"/>
    <node id="11221260801" x="3815.89" y="2809.85" type="priority"/>
    <node id="11221260802" x="3814.32" y="2809.25" type="priority"/>
    <node id="11221260803" x="3819.54" y="2811.90" type="priority"/>
    <node id="11221260804" x="3820.79" y="2812.80" type="priority"/>
    <node id="11221260805" x="3819.25" y="2809.01" type="priority"/>
    <node id="11221260806" x="3818.96" y="2806.75" type="priority"/>
    <node id="11221260807" x="3820.30" y="2811.35" type="priority"/>
    <node id="11221260808" x="3819.02" y="2807.88" type="priority"/>
    <node id="11221260809" x="3819.05" y="2805.58" type="priority"/>
    <node id="11221260810" x="3819.65" y="2810.19" type="priority"/>
    <node id="11221260811" x="3821.12" y="2812.56" type="priority"/>
    <node id="11221260813" x="3817.75" y="2810.82" type="priority"/>
    <node id="11221295103" x="3676.43" y="2800.08" type="priority"/>
    <node id="11222514235" x="5521.96" y="4392.37" type="right_before_left"/>
    <node id="11222555411" x="5844.95" y="3414.06" type="dead_end"/>
    <node id="1125506594" x="3787.46" y="4777.53" type="priority"/>
    <node id="1125506690" x="5284.98" y="4821.52" type="right_before_left"/>
    <node id="1125506693" x="5279.83" y="4810.01" type="priority"/>
    <node id="1125506721" x="5527.51" y="4396.53" type="priority"/>
    <node id="1125506722" x="5496.85" y="4322.47" type="priority"/>
    <node id="1125506773" x="4389.56" y="4599.80" type="priority"/>
    <node id="1125506781" x="4358.83" y="4606.78" type="priority"/>
    <node id="11373449737" x="4299.09" y="1508.25" type="dead_end"/>
    <node id="11373449738" x="4515.20" y="1787.01" type="priority"/>
    <node id="11373449739" x="4589.26" y="1860.35" type="right_before_left"/>
    <node id="11373449743" x="4725.75" y="1843.38" type="right_before_left"/>
    <node id="11553562668" x="1093.09" y="1902.37" type="priority"/>
    <node id="11553573169" x="1094.86" y="1824.06" type="priority"/>
    <node id="11634958981" x="3674.29" y="2723.08" type="priority"/>
    <node id="11634958983" x="3658.98" y="2718.29" type="right_before_left"/>
    <node id="11634958985" x="3608.86" y="2710.38" type="priority"/>
    <node id="11805897266" x="4165.44" y="3582.14" type="priority"/>
    <node id="11805905254" x="704.95" y="1768.83" type="priority"/>
    <node id="1181004952" x="6913.53" y="4882.18" type="priority"/>
    <node id="11876724271" x="4423.93" y="4512.69" type="right_before_left"/>
    <node id="1188934698" x="3852.65" y="3200.99" type="priority"/>
    <node id="1188934700" x="3533.72" y="3077.61" type="priority"/>
    <node id="1188934705" x="3841.02" y="3271.33" type="priority"/>
    <node id="1194795165" x="4433.43" y="2603.89" type="priority"/>
    <node id="1194795166" x="4476.09" y="2380.73" type="priority"/>
    <node id="1194795170" x="4460.97" y="2477.03" type="priority"/>
    <node id="11966243318" x="5534.17" y="4399.60" type="priority"/>
    <node id="11966243319" x="5819.07" y="4484.33" type="priority"/>
    <node id="1200542547" x="3800.37" y="2584.01" type="priority"/>
    <node id="1200542550" x="4035.19" y="2628.62" type="priority"/>
    <node id="1200542552" x="3957.90" y="2611.81" type="priority"/>
    <node id="1200548003" x="4178.49" y="3259.98" type="priority"/>
    <node id="12053052642" x="2356.65" y="3359.03" type="right_before_left"/>
    <node id="12056922124" x="4735.88" y="1489.68" type="priority"/>
    <node id="12056947962" x="4440.42" y="1677.22" type="priority"/>
    <node id="12056947963" x="4547.00" y="1606.75" type="right_before_left"/>
    <node id="12091953664" x="4876.69" y="3582.74" type="priority"/>
    <node id="12091953666" x="4900.17" y="3586.97" type="priority"/>
    <node id="12091953667" x="4902.79" y="3572.27" type="priority"/>
    <node id="12110754025" x="4228.54" y="3067.35" type="dead_end"/>
    <node id="12110754026" x="4197.92" y="3060.65" type="dead_end"/>
    <node id="12110754027" x="4197.67" y="3062.05" type="dead_end"/>
    <node id="12110754028" x="4216.20" y="3065.23" type="dead_end"/>
    <node id="12110754038" x="4214.05" y="3064.86" type="traffic_light" tl="12110754038"/>
    <node id="12110754039" x="4198.31" y="3058.43" type="dead_end"/>
    <node id="12110754040" x="4119.11" y="3046.59" type="priority"/>
    <node id="12110754041" x="4164.50" y="3054.69" type="priority"/>
    <node id="12110754042" x="3986.43" y="3023.50" type="priority"/>
    <node id="12110754043" x="4004.63" y="3026.66" type="priority"/>
    <node id="12110754044" x="4022.51" y="3029.76" type="priority"/>
    <node id="12110754045" x="3958.82" y="3015.15" type="dead_end"/>
    <node id="12110754047" x="3959.07" y="3013.68" type="priority"/>
    <node id="12110754048" x="3958.30" y="3017.76" type="dead_end"/>
    <node id="12110754052" x="3898.81" y="3004.56" type="dead_end"/>
    <node id="12110754054" x="3907.35" y="2991.50" type="dead_end"/>
    <node id="12110754056" x="3960.42" y="3005.89" type="dead_end"/>
    <node id="12110754060" x="4379.40" y="3092.72" type="dead_end"/>
    <node id="12110754061" x="4379.71" y="3090.63" type="dead_end"/>
    <node id="12110754079" x="4533.89" y="3119.32" type="priority"/>
    <node id="12110754080" x="4535.45" y="3110.19" type="dead_end"/>
    <node id="12110800497" x="3647.52" y="2950.82" type="dead_end"/>
    <node id="12110800498" x="3777.22" y="2973.23" type="dead_end"/>
    <node id="12110800500" x="3776.29" y="2985.39" type="dead_end"/>
    <node id="12110800507" x="3809.19" y="2976.83" type="dead_end"/>
    <node id="12110800508" x="3811.49" y="2964.74" type="dead_end"/>
    <node id="12110800513" x="3777.07" y="2981.20" type="priority"/>
    <node id="12110800515" x="3646.71" y="2955.39" type="dead_end"/>
    <node id="12110800516" x="3650.05" y="2936.48" type="dead_end"/>
    <node id="12110800518" x="3650.16" y="2931.02" type="priority"/>
    <node id="12110800519" x="3646.29" y="2957.80" type="traffic_light" tl="12110800519"/>
    <node id="12110800558" x="3677.31" y="2956.01" type="dead_end"/>
    <node id="12110800563" x="3681.80" y="2931.87" type="dead_end"/>
    <node id="12110800565" x="3645.47" y="2962.45" type="dead_end"/>
    <node id="12110800566" x="3675.17" y="2967.66" type="dead_end"/>
    <node id="12110964038" x="3515.95" y="2926.56" type="right_before_left"/>
    <node id="12110964046" x="3607.82" y="3063.14" type="dead_end"/>
    <node id="12110964048" x="3626.26" y="2961.02" type="dead_end"/>
    <node id="12110964050" x="3637.88" y="2962.91" type="dead_end"/>
    <node id="12110964054" x="3633.47" y="3025.94" type="dead_end"/>
    <node id="12110964055" x="3632.07" y="3033.38" type="dead_end"/>
    <node id="12110964058" x="3628.54" y="3018.21" type="dead_end"/>
    <node id="12110964059" x="3616.43" y="3016.14" type="dead_end"/>
    <node id="12110964066" x="3606.26" y="3061.17" type="priority"/>
    <node id="12110964067" x="3632.51" y="3031.05" type="priority"/>
    <node id="12110964068" x="3621.76" y="3017.05" type="priority"/>
    <node id="12110964070" x="3665.48" y="3041.63" type="dead_end"/>
    <node id="12111477041" x="3898.35" y="3006.93" type="dead_end"/>
    <node id="12111477043" x="3891.29" y="3009.70" type="dead_end"/>
    <node id="12111477046" x="3899.63" y="2963.29" type="dead_end"/>
    <node id="12111477048" x="3876.51" y="2989.14" type="dead_end"/>
    <node id="12111477049" x="3879.20" y="2974.41" type="dead_end"/>
    <node id="12111477053" x="3889.39" y="2961.46" type="dead_end"/>
    <node id="12111477054" x="3877.08" y="2986.02" type="dead_end"/>
    <node id="12111477064" x="3811.88" y="2962.69" type="dead_end"/>
    <node id="12111477069" x="3805.94" y="2940.14" type="dead_end"/>
    <node id="12111477084" x="3683.18" y="2924.59" type="dead_end"/>
    <node id="12111477085" x="3694.65" y="2926.61" type="priority"/>
    <node id="12111477086" x="3717.35" y="2930.61" type="priority"/>
    <node id="12111477087" x="3740.18" y="2934.64" type="priority"/>
    <node id="12111477088" x="3754.53" y="2937.18" type="dead_end"/>
    <node id="12111477089" x="3691.27" y="2970.48" type="priority"/>
    <node id="12111477090" x="3710.02" y="2973.76" type="priority"/>
    <node id="12111477091" x="3728.15" y="2976.95" type="priority"/>
    <node id="12111477092" x="3651.11" y="2918.93" type="dead_end"/>
    <node id="12111477097" x="3620.28" y="2944.85" type="dead_end"/>
    <node id="12111477100" x="3629.47" y="2914.28" type="dead_end"/>
    <node id="12111509603" x="3777.26" y="2967.99" type="dead_end"/>
    <node id="12111509606" x="3782.48" y="2942.10" type="dead_end"/>
    <node id="12111509608" x="3781.72" y="2946.77" type="priority"/>
    <node id="12111509623" x="3902.41" y="2885.43" type="dead_end"/>
    <node id="12111509624" x="3913.13" y="2887.45" type="dead_end"/>
    <node id="12111509625" x="3901.85" y="2888.69" type="dead_end"/>
    <node id="12111509626" x="3828.19" y="2868.47" type="dead_end"/>
    <node id="12111509627" x="3893.24" y="2879.83" type="dead_end"/>
    <node id="12111509628" x="3894.98" y="2871.54" type="dead_end"/>
    <node id="12111509629" x="3829.74" y="2860.13" type="dead_end"/>
    <node id="12111509634" x="3625.26" y="2926.60" type="priority"/>
    <node id="12111509635" x="3826.37" y="2999.30" type="dead_end"/>
    <node id="12111509636" x="3826.82" y="2996.85" type="dead_end"/>
    <node id="12111509637" x="3850.69" y="3001.07" type="dead_end"/>
    <node id="12111509638" x="3850.21" y="3003.69" type="dead_end"/>
    <node id="12111509639" x="3829.77" y="2980.60" type="dead_end"/>
    <node id="12111509640" x="3853.71" y="2984.97" type="dead_end"/>
    <node id="12111509641" x="3829.50" y="2982.11" type="dead_end"/>
    <node id="12111509643" x="3844.44" y="2968.36" type="dead_end"/>
    <node id="12111509644" x="3841.75" y="2982.79" type="dead_end"/>
    <node id="12111509647" x="3801.66" y="3060.98" type="priority"/>
    <node id="12111509648" x="3852.05" y="3069.74" type="priority"/>
    <node id="12111509649" x="3780.07" y="2954.05" type="priority"/>
    <node id="12111509650" x="3666.60" y="2790.46" type="priority"/>
    <node id="12111509651" x="3906.30" y="2833.19" type="priority"/>
    <node id="12111509652" x="3907.24" y="2827.59" type="priority"/>
    <node id="12112315421" x="4253.68" y="3009.75" type="priority"/>
    <node id="12112315422" x="4255.00" y="3002.79" type="priority"/>
    <node id="12232044822" x="1124.41" y="1505.91" type="priority"/>
    <node id="12232044823" x="1108.02" y="1578.72" type="priority"/>
    <node id="12258749247" x="5756.27" y="4424.93" type="right_before_left"/>
    <node id="12294002730" x="6438.09" y="4963.76" type="priority"/>
    <node id="12294002733" x="6483.23" y="4881.25" type="dead_end"/>
    <node id="12294002734" x="6359.56" y="4853.74" type="priority"/>
    <node id="12294002737" x="6440.20" y="4868.25" type="priority"/>
    <node id="12294002739" x="6395.17" y="4856.21" type="right_before_left"/>
    <node id="12294002740" x="6378.24" y="4886.73" type="priority"/>
    <node id="12294002741" x="6339.56" y="4906.76" type="priority"/>
    <node id="12294002745" x="6364.12" y="4877.77" type="priority"/>
    <node id="12294002746" x="6378.51" y="4928.84" type="priority"/>
    <node id="12294002749" x="6393.51" y="4896.42" type="priority"/>
    <node id="12294002750" x="6415.79" y="4941.49" type="priority"/>
    <node id="12294002754" x="6418.60" y="4912.33" type="priority"/>
    <node id="12294002757" x="6350.76" y="4843.11" type="priority"/>
    <node id="12294002759" x="6324.85" y="4834.08" type="priority"/>
    <node id="12294002760" x="6386.49" y="4825.99" type="priority"/>
    <node id="12294002762" x="6385.48" y="4783.56" type="priority"/>
    <node id="12294002763" x="6364.31" y="4795.61" type="right_before_left"/>
    <node id="12294002764" x="6318.61" y="4823.11" type="priority"/>
    <node id="12294002765" x="6278.61" y="4821.99" type="priority"/>
    <node id="12294002768" x="6294.42" y="4780.54" type="priority"/>
    <node id="12294002769" x="6343.49" y="4761.89" type="priority"/>
    <node id="12294002771" x="6298.44" y="4787.61" type="priority"/>
    <node id="12294002772" x="6255.93" y="4773.09" type="priority"/>
    <node id="12294002774" x="6284.96" y="4763.90" type="priority"/>
    <node id="12294002775" x="6317.36" y="4820.90" type="priority"/>
    <node id="12294002778" x="6308.27" y="4881.88" type="priority"/>
    <node id="12294002784" x="6304.78" y="4876.15" type="priority"/>
    <node id="12294002791" x="6311.48" y="4824.18" type="priority"/>
    <node id="12294002792" x="6288.96" y="4784.60" type="priority"/>
    <node id="12294002793" x="6279.13" y="4767.31" type="priority"/>
    <node id="12294002798" x="6473.48" y="4871.98" type="dead_end"/>
    <node id="12294016903" x="6381.87" y="4880.47" type="priority"/>
    <node id="12294016904" x="6369.53" y="4872.59" type="priority"/>
    <node id="12294016908" x="6331.01" y="4830.93" type="priority"/>
    <node id="12294016909" x="6324.31" y="4819.51" type="priority"/>
    <node id="12294016910" x="6304.40" y="4784.12" type="priority"/>
    <node id="12323928477" x="886.97" y="4355.84" type="dead_end"/>
    <node id="12323928480" x="838.45" y="4363.34" type="dead_end"/>
    <node id="12331132151" x="4786.74" y="2178.22" type="dead_end"/>
    <node id="12331132152" x="4773.27" y="2253.08" type="dead_end"/>
    <node id="12331132153" x="4767.26" y="2285.99" type="priority"/>
    <node id="12331132155" x="4789.56" y="2275.60" type="dead_end"/>
    <node id="12331132157" x="6350.68" y="2316.12" type="dead_end"/>
    <node id="12331132158" x="6350.94" y="2314.56" type="dead_end" fringe="inner">
        <param key="buffer_stop" value="true"/>
    </node>
    <node id="12331132163" x="4778.03" y="2339.62" type="dead_end"/>
    <node id="12331132164" x="4795.13" y="2243.23" type="priority"/>