<?xml version="1.0" encoding="UTF-8"?>

<!-- generated on 2025-04-29 23:59:07 by Eclipse SUMO netconvert Version 1.22.0
<netconvertConfiguration xmlns:xsi="http://www.w3.org/2001/XMLSchema-instance" xsi:noNamespaceSchemaLocation="http://sumo.dlr.de/xsd/netconvertConfiguration.xsd">

    <input>
        <sumo-net-file value="bussy_saint_georges/bussy_saint_georges.net.xml"/>
    </input>

    <output>
        <plain-output-prefix value="bussy_saint_georges/bussy_saint_georges"/>
    </output>

    <processing>
        <geometry.min-radius.fix.railways value="false"/>
        <geometry.max-grade.fix value="false"/>
        <offset.disable-normalization value="true"/>
        <lefthand value="0"/>
    </processing>

    <tls_building>
        <tls.ignore-internal-junction-jam value="1"/>
    </tls_building>

    <junctions>
        <no-turnarounds value="true"/>
        <junctions.corner-detail value="5"/>
        <junctions.limit-turn-speed value="5.50"/>
        <rectangular-lane-cut value="0"/>
    </junctions>

    <pedestrian>
        <walkingareas value="0"/>
    </pedestrian>

</netconvertConfiguration>
-->

<connections version="1.20" xmlns:xsi="http://www.w3.org/2001/XMLSchema-instance" xsi:noNamespaceSchemaLocation="http://sumo.dlr.de/xsd/connections_file.xsd">
    <connection from="-1008296837#0" to="88234673#0" fromLane="0" toLane="0"/>
    <connection from="-1008296837#0" to="-286595746#2" fromLane="0" toLane="0"/>
    <connection from="-1008296837#0" to="593416268" fromLane="0" toLane="0"/>
    <connection from="-1008296837#0" to="1008296837#0" fromLane="0" toLane="0"/>

    <connection from="-1008296837#1" to="586031208#0" fromLane="0" toLane="0"/>
    <connection from="-1008296837#1" to="-1008296837#0" fromLane="0" toLane="0"/>
    <connection from="-1008296837#1" to="1008296837#1" fromLane="0" toLane="0"/>

    <connection from="-1008296838#0" to="-1209786786#1" fromLane="0" toLane="0"/>
    <connection from="-1008296838#0" to="144875504#0" fromLane="0" toLane="0"/>
    <connection from="-1008296838#0" to="1209786786#2" fromLane="0" toLane="0"/>

    <connection from="-1008296838#1" to="-1008296838#0" fromLane="0" toLane="0"/>

    <connection from="-1008296838#2" to="144877445#0" fromLane="0" toLane="0"/>
    <connection from="-1008296838#2" to="-1008296838#1" fromLane="0" toLane="0"/>

    <connection from="-1008296839#0" to="-1134812032" fromLane="0" toLane="0"/>

    <connection from="-1008296839#1" to="-1008296839#0" fromLane="0" toLane="0"/>
    <connection from="-1008296839#1" to="144912059#2" fromLane="0" toLane="0"/>

    <connection from="-1008296839#2" to="144912059#0" fromLane="0" toLane="0"/>
    <connection from="-1008296839#2" to="-1008296839#1" fromLane="0" toLane="0"/>

    <connection from="-1008296839#3" to="-1008296839#2" fromLane="0" toLane="0"/>

    <connection from="-1008296839#4" to="-1008296839#3" fromLane="0" toLane="0"/>
    <connection from="-1008296839#4" to="144875577#0" fromLane="0" toLane="0"/>

    <connection from="-1008296839#5" to="-286595879#8" fromLane="0" toLane="0"/>
    <connection from="-1008296839#5" to="-1008296839#4" fromLane="0" toLane="0"/>
    <connection from="-1008296839#5" to="286595879#9" fromLane="0" toLane="0"/>

    <connection from="-1008296840" to="141347341" fromLane="0" toLane="0"/>
    <connection from="-1008296840" to="-304406337" fromLane="0" toLane="0"/>
    <connection from="-1008296840" to="1008296840" fromLane="0" toLane="0"/>

    <connection from="-1012821105#0" to="1012821105#0" fromLane="0" toLane="0"/>

    <connection from="-1012821105#1" to="486602967#1" fromLane="0" toLane="0"/>
    <connection from="-1012821105#1" to="-1012821105#0" fromLane="0" toLane="0"/>
    <connection from="-1012821105#1" to="-486602967#0" fromLane="0" toLane="0"/>
    <connection from="-1012821105#1" to="1012821105#1" fromLane="0" toLane="0"/>

    <connection from="-1012821105#2" to="1012821118" fromLane="0" toLane="0"/>
    <connection from="-1012821105#2" to="-1012821105#1" fromLane="0" toLane="0"/>
    <connection from="-1012821105#2" to="1012821105#2" fromLane="0" toLane="0"/>

    <connection from="-1012821107#0" to="-584391367#1" fromLane="0" toLane="0"/>
    <connection from="-1012821107#0" to="584391367#2" fromLane="0" toLane="0"/>
    <connection from="-1012821107#0" to="1012821107#0" fromLane="0" toLane="0"/>

    <connection from="-1012821107#1" to="-486602970#0" fromLane="0" toLane="0"/>
    <connection from="-1012821107#1" to="-1012821107#0" fromLane="0" toLane="0"/>
    <connection from="-1012821107#1" to="486602970#1" fromLane="0" toLane="0"/>
    <connection from="-1012821107#1" to="1012821107#1" fromLane="0" toLane="0"/>

    <connection from="-1012821109#0" to="486602967#0" fromLane="0" toLane="0"/>
    <connection from="-1012821109#0" to="486602969" fromLane="0" toLane="0"/>
    <connection from="-1012821109#0" to="-1012821107#1" fromLane="0" toLane="0"/>
    <connection from="-1012821109#0" to="1012821109#0" fromLane="0" toLane="0"/>

    <connection from="-1012821109#1" to="1012821111" fromLane="0" toLane="0"/>
    <connection from="-1012821109#1" to="-1012821109#0" fromLane="0" toLane="0"/>
    <connection from="-1012821109#1" to="1012821109#1" fromLane="0" toLane="0"/>

    <connection from="-1012821109#2" to="-1012821109#1" fromLane="0" toLane="0"/>
    <connection from="-1012821109#2" to="-1012821110" fromLane="0" toLane="0"/>
    <connection from="-1012821109#2" to="1012821109#2" fromLane="0" toLane="0"/>

    <connection from="-1012821110" to="1012821107#1" fromLane="0" toLane="0"/>
    <connection from="-1012821110" to="-486602970#0" fromLane="0" toLane="0"/>
    <connection from="-1012821110" to="-1012821107#0" fromLane="0" toLane="0"/>
    <connection from="-1012821110" to="486602970#1" fromLane="0" toLane="0"/>

    <connection from="-1012821111" to="-1012821109#0" fromLane="0" toLane="0"/>
    <connection from="-1012821111" to="1012821109#1" fromLane="0" toLane="0"/>
    <connection from="-1012821111" to="1012821111" fromLane="0" toLane="0"/>

    <connection from="-1012821112#0" to="144911957#2" fromLane="0" toLane="0"/>
    <connection from="-1012821112#0" to="1012821112#0" fromLane="0" toLane="0"/>

    <connection from="-1012821112#1" to="-1012821112#0" fromLane="0" toLane="0"/>
    <connection from="-1012821112#1" to="1012821112#1" fromLane="0" toLane="0"/>

    <connection from="-1012821112#2" to="-1012821112#1" fromLane="0" toLane="0"/>
    <connection from="-1012821112#2" to="486602966" fromLane="0" toLane="0"/>
    <connection from="-1012821112#2" to="1012821112#2" fromLane="0" toLane="0"/>

    <connection from="-1012821118" to="-1012821105#1" fromLane="0" toLane="0"/>
    <connection from="-1012821118" to="1012821105#2" fromLane="0" toLane="0"/>
    <connection from="-1012821118" to="1012821118" fromLane="0" toLane="0"/>

    <connection from="-1012821130#0" to="147154242#0" fromLane="0" toLane="0" visibility="9.00"/>

    <connection from="-1012821131#0" to="590448779#4" fromLane="0" toLane="0"/>
    <connection from="-1012821131#0" to="-590448777#0" fromLane="0" toLane="0"/>
    <connection from="-1012821131#0" to="590448777#1" fromLane="0" toLane="0"/>

    <connection from="-1012821131#1" to="-1012821131#0" fromLane="0" toLane="0"/>
    <connection from="-1012821131#1" to="590448778" fromLane="0" toLane="0"/>
    <connection from="-1012821131#1" to="1012821131#1" fromLane="0" toLane="0"/>

    <connection from="-1012821133#0" to="1012821138" fromLane="0" toLane="0"/>
    <connection from="-1012821133#0" to="-147154246#1" fromLane="0" toLane="0"/>
    <connection from="-1012821133#0" to="147154246#2" fromLane="0" toLane="0"/>

    <connection from="-1012821133#1" to="-1012821133#0" fromLane="0" toLane="0"/>
    <connection from="-1012821133#1" to="590448776#3" fromLane="0" toLane="0"/>
    <connection from="-1012821133#1" to="1012821133#1" fromLane="0" toLane="0"/>

    <connection from="-1012821136#0" to="147154246#1" fromLane="0" toLane="0"/>
    <connection from="-1012821136#0" to="-147154246#0" fromLane="0" toLane="0"/>
    <connection from="-1012821136#0" to="1012821136#0" fromLane="0" toLane="0"/>

    <connection from="-1012821136#1" to="1012821139" fromLane="0" toLane="0"/>
    <connection from="-1012821136#1" to="-1012821136#0" fromLane="0" toLane="0"/>
    <connection from="-1012821136#1" to="1012821136#1" fromLane="0" toLane="0"/>

    <connection from="-1012821137#0" to="1012821137#0" fromLane="0" toLane="0"/>

    <connection from="-1012821137#1" to="-1012821138" fromLane="0" toLane="0"/>
    <connection from="-1012821137#1" to="-1012821137#0" fromLane="0" toLane="0"/>
    <connection from="-1012821137#1" to="1012821137#1" fromLane="0" toLane="0"/>

    <connection from="-1012821138" to="-147154246#1" fromLane="0" toLane="0"/>
    <connection from="-1012821138" to="147154246#2" fromLane="0" toLane="0"/>
    <connection from="-1012821138" to="1012821138" fromLane="0" toLane="0"/>

    <connection from="-1012821140" to="1012821140" fromLane="0" toLane="0"/>

    <connection from="-1012821144" to="686773348" fromLane="0" toLane="0"/>
    <connection from="-1012821144" to="1012821144" fromLane="0" toLane="0"/>

    <connection from="-1012821145#0" to="590448779#5" fromLane="0" toLane="0"/>
    <connection from="-1012821145#0" to="-1012821148#0" fromLane="0" toLane="0"/>
    <connection from="-1012821145#0" to="1012821148#1" fromLane="0" toLane="0"/>

    <connection from="-1012821145#1" to="1012821146#2" fromLane="0" toLane="0"/>
    <connection from="-1012821145#1" to="-1012821145#0" fromLane="0" toLane="0"/>
    <connection from="-1012821145#1" to="-1012821146#1" fromLane="0" toLane="0"/>
    <connection from="-1012821145#1" to="1012821145#1" fromLane="0" toLane="0"/>

    <connection from="-1012821145#2" to="1012821147#1" fromLane="0" toLane="0"/>
    <connection from="-1012821145#2" to="-1012821145#1" fromLane="0" toLane="0"/>
    <connection from="-1012821145#2" to="-1012821147#0" fromLane="0" toLane="0"/>
    <connection from="-1012821145#2" to="1012821145#2" fromLane="0" toLane="0"/>

    <connection from="-1012821145#3" to="-1012821146#3" fromLane="0" toLane="0"/>
    <connection from="-1012821145#3" to="-1012821145#2" fromLane="0" toLane="0"/>
    <connection from="-1012821145#3" to="1012821146#0" fromLane="0" toLane="0"/>
    <connection from="-1012821145#3" to="1012821145#3" fromLane="0" toLane="0"/>

    <connection from="-1012821146#0" to="1012821145#3" fromLane="0" toLane="0"/>
    <connection from="-1012821146#0" to="-1012821146#3" fromLane="0" toLane="0"/>
    <connection from="-1012821146#0" to="-1012821145#2" fromLane="0" toLane="0"/>
    <connection from="-1012821146#0" to="1012821146#0" fromLane="0" toLane="0"/>

    <connection from="-1012821146#1" to="-1012821146#0" fromLane="0" toLane="0"/>
    <connection from="-1012821146#1" to="1012821147#0" fromLane="0" toLane="0"/>
    <connection from="-1012821146#1" to="1012821146#1" fromLane="0" toLane="0"/>

    <connection from="-1012821146#2" to="-1012821145#0" fromLane="0" toLane="0"/>
    <connection from="-1012821146#2" to="-1012821146#1" fromLane="0" toLane="0"/>
    <connection from="-1012821146#2" to="1012821145#1" fromLane="0" toLane="0"/>
    <connection from="-1012821146#2" to="1012821146#2" fromLane="0" toLane="0"/>

    <connection from="-1012821146#3" to="-1012821146#2" fromLane="0" toLane="0"/>
    <connection from="-1012821146#3" to="-1012821147#1" fromLane="0" toLane="0"/>
    <connection from="-1012821146#3" to="1012821146#3" fromLane="0" toLane="0"/>

    <connection from="-1012821147#0" to="1012821146#1" fromLane="0" toLane="0"/>
    <connection from="-1012821147#0" to="-1012821146#0" fromLane="0" toLane="0"/>
    <connection from="-1012821147#0" to="1012821147#0" fromLane="0" toLane="0"/>

    <connection from="-1012821147#1" to="-1012821145#1" fromLane="0" toLane="0"/>
    <connection from="-1012821147#1" to="-1012821147#0" fromLane="0" toLane="0"/>
    <connection from="-1012821147#1" to="1012821145#2" fromLane="0" toLane="0"/>
    <connection from="-1012821147#1" to="1012821147#1" fromLane="0" toLane="0"/>

    <connection from="-1012821148#0" to="41186195#9" fromLane="0" toLane="0"/>
    <connection from="-1012821148#0" to="147154256#0" fromLane="0" toLane="0"/>
    <connection from="-1012821148#0" to="-41186195#8" fromLane="0" toLane="0"/>
    <connection from="-1012821148#0" to="1012821148#0" fromLane="0" toLane="0"/>

    <connection from="-1012821150" to="-274641032#2" fromLane="0" toLane="0"/>
    <connection from="-1012821150" to="-274641056" fromLane="0" toLane="0"/>
    <connection from="-1012821150" to="1012821150" fromLane="0" toLane="0"/>

    <connection from="-1012821151" to="-274641032#0" fromLane="0" toLane="0"/>
    <connection from="-1012821151" to="-274641050#1" fromLane="0" toLane="0"/>
    <connection from="-1012821151" to="274641032#1" fromLane="0" toLane="0"/>
    <connection from="-1012821151" to="1012821151" fromLane="0" toLane="0"/>

    <connection from="-1012821153" to="274641067" fromLane="0" toLane="0"/>

    <connection from="-1012821155" to="933942619#4" fromLane="0" toLane="0"/>
    <connection from="-1012821155" to="-1012821130#0" fromLane="0" toLane="0"/>

    <connection from="-1012821182" to="1012821182" fromLane="0" toLane="0"/>

    <connection from="-1031462541#0" to="1031462541#0" fromLane="0" toLane="0"/>

    <connection from="-1031462541#1" to="-1031462541#0" fromLane="0" toLane="0"/>
    <connection from="-1031462541#1" to="1031462541#1" fromLane="0" toLane="0"/>

    <connection from="-1031462541#2" to="-1103126498#4" fromLane="0" toLane="0"/>
    <connection from="-1031462541#2" to="-1031462541#1" fromLane="0" toLane="0"/>
    <connection from="-1031462541#2" to="1103126498#5" fromLane="0" toLane="0"/>
    <connection from="-1031462541#2" to="1031462541#2" fromLane="0" toLane="0"/>

    <connection from="-1031462548#0" to="1031462548#0" fromLane="0" toLane="0"/>

    <connection from="-1031462548#1" to="-1031462548#0" fromLane="0" toLane="0"/>
    <connection from="-1031462548#1" to="1031462548#1" fromLane="0" toLane="0"/>

    <connection from="-1031462549#0" to="1031462549#0" fromLane="0" toLane="0"/>

    <connection from="-1031462549#1" to="-485842786#2" fromLane="0" toLane="0"/>
    <connection from="-1031462549#1" to="-1031462549#0" fromLane="0" toLane="0"/>
    <connection from="-1031462549#1" to="485842786#3" fromLane="0" toLane="0"/>
    <connection from="-1031462549#1" to="1031462549#1" fromLane="0" toLane="0"/>

    <connection from="-1031462549#2" to="881925508#1" fromLane="0" toLane="0"/>
    <connection from="-1031462549#2" to="-1031462549#1" fromLane="0" toLane="0"/>
    <connection from="-1031462549#2" to="-881925508#0" fromLane="0" toLane="0"/>
    <connection from="-1031462549#2" to="1031462549#2" fromLane="0" toLane="0"/>

    <connection from="-103482562#0" to="103482562#0" fromLane="0" toLane="0"/>

    <connection from="-103482562#1" to="-103482562#0" fromLane="0" toLane="0"/>

    <connection from="-1034989096" to="47358695#0" fromLane="0" toLane="0"/>
    <connection from="-1034989096" to="1034989096" fromLane="0" toLane="0"/>

    <connection from="-1038088786#0" to="1038088786#0" fromLane="0" toLane="0"/>

    <connection from="-1038088786#1" to="917408340#1" fromLane="0" toLane="0"/>
    <connection from="-1038088786#1" to="-1038088786#0" fromLane="0" toLane="0"/>
    <connection from="-1038088786#1" to="-917408340#0" fromLane="0" toLane="0"/>
    <connection from="-1038088786#1" to="1038088786#1" fromLane="0" toLane="0"/>

    <connection from="-1050314384" to="-25094380#5" fromLane="0" toLane="0"/>
    <connection from="-1050314384" to="25094380#6" fromLane="0" toLane="0"/>
    <connection from="-1050314384" to="1050314384" fromLane="0" toLane="0"/>

    <connection from="-1050314385" to="1050314387#1" fromLane="0" toLane="0"/>
    <connection from="-1050314385" to="-1050314387#0" fromLane="0" toLane="0"/>
    <connection from="-1050314385" to="1050314385" fromLane="0" toLane="0"/>

    <connection from="-1050314386" to="25094380#5" fromLane="0" toLane="0"/>
    <connection from="-1050314386" to="-25094380#4" fromLane="0" toLane="0"/>
    <connection from="-1050314386" to="1050314386" fromLane="0" toLane="0"/>

    <connection from="-1050314387#0" to="25094380#4" fromLane="0" toLane="0"/>
    <connection from="-1050314387#0" to="-25094380#3" fromLane="0" toLane="0"/>
    <connection from="-1050314387#0" to="1050314387#0" fromLane="0" toLane="0"/>

    <connection from="-1050314387#1" to="-1050314387#0" fromLane="0" toLane="0"/>
    <connection from="-1050314387#1" to="1050314385" fromLane="0" toLane="0"/>
    <connection from="-1050314387#1" to="1050314387#1" fromLane="0" toLane="0"/>

    <connection from="-1050314388" to="-25094380#1" fromLane="0" toLane="0"/>
    <connection from="-1050314388" to="25094380#2" fromLane="0" toLane="0"/>
    <connection from="-1050314388" to="1050314389" fromLane="0" toLane="0"/>

    <connection from="-1050314390" to="1050314390" fromLane="0" toLane="0"/>

    <connection from="-1050314391" to="199509137#2" fromLane="0" toLane="0"/>
    <connection from="-1050314391" to="-199509137#1" fromLane="0" toLane="0"/>
    <connection from="-1050314391" to="1050314391" fromLane="0" toLane="0"/>

    <connection from="-1050314392#0" to="199509137#1" fromLane="0" toLane="0"/>
    <connection from="-1050314392#0" to="-199509137#0" fromLane="0" toLane="0"/>
    <connection from="-1050314392#0" to="1050314392#0" fromLane="0" toLane="0"/>

    <connection from="-1050314392#1" to="-1050314392#2" fromLane="0" toLane="0"/>
    <connection from="-1050314392#1" to="-1050314392#0" fromLane="0" toLane="0"/>
    <connection from="-1050314392#1" to="1050314392#1" fromLane="0" toLane="0"/>

    <connection from="-1050314392#2" to="-1050314392#1" fromLane="0" toLane="0"/>

    <connection from="-1050314394#0" to="-1050314394#1" fromLane="0" toLane="0"/>
    <connection from="-1050314394#0" to="-1050314395" fromLane="0" toLane="0"/>
    <connection from="-1050314394#0" to="1050314394#0" fromLane="0" toLane="0"/>

    <connection from="-1050314394#1" to="-1050314394#0" fromLane="0" toLane="0"/>

    <connection from="-1050314395" to="199509137#4" fromLane="0" toLane="0"/>
    <connection from="-1050314395" to="-199509137#3" fromLane="0" toLane="0"/>
    <connection from="-1050314395" to="1050314395" fromLane="0" toLane="0"/>

    <connection from="-1051375139" to="1051375139" fromLane="0" toLane="0"/>

    <connection from="-1051375140" to="-155294736#2" fromLane="0" toLane="0"/>
    <connection from="-1051375140" to="155294736#3" fromLane="0" toLane="0"/>
    <connection from="-1051375140" to="1051375140" fromLane="0" toLane="0"/>

    <connection from="-1053293135#0" to="1331983917" fromLane="0" toLane="0"/>
    <connection from="-1053293135#0" to="-117755162#2" fromLane="0" toLane="0"/>
    <connection from="-1053293135#0" to="1053293135#0" fromLane="0" toLane="0"/>

    <connection from="-1053293135#1" to="-147140023#0" fromLane="0" toLane="0"/>
    <connection from="-1053293135#1" to="-1053293135#0" fromLane="0" toLane="0"/>
    <connection from="-1053293135#1" to="147140023#1" fromLane="0" toLane="0"/>
    <connection from="-1053293135#1" to="1053293135#1" fromLane="0" toLane="0"/>

    <connection from="-1054397811" to="-117755162#1" fromLane="0" toLane="0"/>
    <connection from="-1054397811" to="1054398464#0" fromLane="0" toLane="0"/>
    <connection from="-1054397811" to="117755162#2" fromLane="0" toLane="0"/>
    <connection from="-1054397811" to="1054397811" fromLane="0" toLane="0"/>

    <connection from="-1054398339" to="-1331983918" fromLane="0" toLane="0"/>
    <connection from="-1054398339" to="-1054398464#1" fromLane="0" toLane="0"/>
    <connection from="-1054398339" to="1054398339" fromLane="0" toLane="0"/>

    <connection from="-1054398464#0" to="117755162#2" fromLane="0" toLane="0"/>
    <connection from="-1054398464#0" to="1054397811" fromLane="0" toLane="0"/>
    <connection from="-1054398464#0" to="-117755162#1" fromLane="0" toLane="0"/>
    <connection from="-1054398464#0" to="1054398464#0" fromLane="0" toLane="0"/>

    <connection from="-1054398464#1" to="-1054398749" fromLane="0" toLane="0"/>
    <connection from="-1054398464#1" to="-1054398464#0" fromLane="0" toLane="0"/>
    <connection from="-1054398464#1" to="1054398464#1" fromLane="0" toLane="0"/>

    <connection from="-1054398749" to="-1331983919" fromLane="0" toLane="0"/>
    <connection from="-1054398749" to="-147140050#1" fromLane="0" toLane="0"/>
    <connection from="-1054398749" to="1054398749" fromLane="0" toLane="0"/>

    <connection from="-1054785708" to="-25343657" fromLane="0" toLane="0"/>
    <connection from="-1054785708" to="-147140037#1" fromLane="0" toLane="0"/>
    <connection from="-1054785708" to="1054785708" fromLane="0" toLane="0"/>

    <connection from="-1054805145" to="-147139986#0" fromLane="0" toLane="0"/>
    <connection from="-1054805145" to="147139986#1" fromLane="0" toLane="0"/>

    <connection from="-1054805225" to="147139916" fromLane="0" toLane="0"/>

    <connection from="-1056450052#0" to="1056450055#2" fromLane="0" toLane="0"/>
    <connection from="-1056450052#0" to="-1056450055#1" fromLane="0" toLane="0"/>
    <connection from="-1056450052#0" to="1056450052#0" fromLane="0" toLane="0"/>

    <connection from="-1056450052#1" to="-1056450052#0" fromLane="0" toLane="0"/>
    <connection from="-1056450052#1" to="1056450052#1" fromLane="0" toLane="0"/>

    <connection from="-1056450053" to="586031196#1" fromLane="0" toLane="0"/>
    <connection from="-1056450053" to="-586031196#0" fromLane="0" toLane="0"/>
    <connection from="-1056450053" to="1056450053" fromLane="0" toLane="0"/>

    <connection from="-1056450055#0" to="1207476766#0" fromLane="0" toLane="0" visibility="9.00"/>

    <connection from="-1056450055#1" to="-1056450055#0" fromLane="0" toLane="0"/>
    <connection from="-1056450055#1" to="1056450055#1" fromLane="0" toLane="0"/>

    <connection from="-1056450055#2" to="-1056450055#1" fromLane="0" toLane="0"/>
    <connection from="-1056450055#2" to="1056450052#0" fromLane="0" toLane="0"/>

    <connection from="-1056450055#3" to="-1056450055#2" fromLane="0" toLane="0"/>

    <connection from="-1056450055#4" to="-1056450055#3" fromLane="0" toLane="0"/>
    <connection from="-1056450055#4" to="586031196#0" fromLane="0" toLane="0"/>

    <connection from="-1056450055#5" to="-1056450055#4" fromLane="0" toLane="0"/>

    <connection from="-1056450055#6" to="-1056450055#5" fromLane="0" toLane="0"/>
    <connection from="-1056450055#6" to="-147139964" fromLane="0" toLane="0"/>

    <connection from="-1056450055#7" to="-1056450055#6" fromLane="0" toLane="0"/>
    <connection from="-1056450055#7" to="147140025" fromLane="0" toLane="0"/>

    <connection from="-1056450056" to="25330997#0" fromLane="0" toLane="0"/>
    <connection from="-1056450056" to="1056450056" fromLane="0" toLane="0"/>

    <connection from="-1056450057" to="274641047" fromLane="0" toLane="0"/>
    <connection from="-1056450057" to="-25321284#6" fromLane="0" toLane="0"/>

    <connection from="-1057750648" to="25094149#2" fromLane="0" toLane="0"/>
    <connection from="-1057750648" to="-25094149#1" fromLane="0" toLane="0"/>
    <connection from="-1057750648" to="1057750648" fromLane="0" toLane="0"/>

    <connection from="-1058616370" to="830808657#0" fromLane="0" toLane="0"/>
    <connection from="-1058616370" to="-976947679" fromLane="0" toLane="0"/>
    <connection from="-1058616370" to="1058616370" fromLane="0" toLane="0"/>

    <connection from="-1058616373" to="-297493902#0" fromLane="0" toLane="0"/>
    <connection from="-1058616373" to="297493902#1" fromLane="0" toLane="0"/>
    <connection from="-1058616373" to="1058616373" fromLane="0" toLane="0"/>

    <connection from="-1058618123" to="1058618123" fromLane="0" toLane="0"/>

    <connection from="-1065946641" to="29271100#5" fromLane="0" toLane="0"/>
    <connection from="-1065946641" to="-29271100#4" fromLane="0" toLane="0"/>
    <connection from="-1065946641" to="1065946641" fromLane="0" toLane="0"/>

    <connection from="-1065946642" to="47356105#1" fromLane="0" toLane="0"/>
    <connection from="-1065946642" to="-47356105#0" fromLane="0" toLane="0"/>
    <connection from="-1065946642" to="1065946642" fromLane="0" toLane="0"/>

    <connection from="-1066141951" to="1066141951" fromLane="0" toLane="0"/>

    <connection from="-1066141952" to="-1066141951" fromLane="0" toLane="0"/>
    <connection from="-1066141952" to="-147154229#3" fromLane="0" toLane="0"/>
    <connection from="-1066141952" to="1066141952" fromLane="0" toLane="0"/>

    <connection from="-1066141953" to="-147154229#1" fromLane="0" toLane="0"/>
    <connection from="-1066141953" to="147154229#2" fromLane="0" toLane="0"/>
    <connection from="-1066141953" to="1066141953" fromLane="0" toLane="0"/>

    <connection from="-1066141954" to="1066141954" fromLane="0" toLane="0"/>

    <connection from="-1066141955" to="-147154229#2" fromLane="0" toLane="0"/>
    <connection from="-1066141955" to="-1066141954" fromLane="0" toLane="0"/>
    <connection from="-1066141955" to="147154229#3" fromLane="0" toLane="0"/>
    <connection from="-1066141955" to="1066141955" fromLane="0" toLane="0"/>

    <connection from="-1066141956" to="-1066141971#3" fromLane="0" toLane="0"/>
    <connection from="-1066141956" to="1066141971#4" fromLane="0" toLane="0"/>
    <connection from="-1066141956" to="1066141956" fromLane="0" toLane="0"/>

    <connection from="-1066141957" to="-1066141971#2" fromLane="0" toLane="0"/>
    <connection from="-1066141957" to="1066141971#3" fromLane="0" toLane="0"/>
    <connection from="-1066141957" to="1066141957" fromLane="0" toLane="0"/>

    <connection from="-1066141958" to="-1066141971#0" fromLane="0" toLane="0"/>
    <connection from="-1066141958" to="1066141971#1" fromLane="0" toLane="0"/>
    <connection from="-1066141958" to="1066141958" fromLane="0" toLane="0"/>

    <connection from="-1066141959" to="1066141959" fromLane="0" toLane="0"/>

    <connection from="-1066141960" to="-1066141977#1" fromLane="0" toLane="0"/>
    <connection from="-1066141960" to="1066141977#2" fromLane="0" toLane="0"/>
    <connection from="-1066141960" to="1066141960" fromLane="0" toLane="0"/>

    <connection from="-1066141961#0" to="1066141961#0" fromLane="0" toLane="0"/>

    <connection from="-1066141961#1" to="-1066141977#0" fromLane="0" toLane="0"/>
    <connection from="-1066141961#1" to="-1066141961#0" fromLane="0" toLane="0"/>
    <connection from="-1066141961#1" to="1066141977#1" fromLane="0" toLane="0"/>
    <connection from="-1066141961#1" to="1066141961#1" fromLane="0" toLane="0"/>

    <connection from="-1066141962#0" to="1066141962#0" fromLane="0" toLane="0"/>

    <connection from="-1066141962#1" to="-685699642#6" fromLane="0" toLane="0"/>
    <connection from="-1066141962#1" to="-1066141962#0" fromLane="0" toLane="0"/>
    <connection from="-1066141962#1" to="1066141962#1" fromLane="0" toLane="0"/>

    <connection from="-1066141963" to="685699641#7" fromLane="0" toLane="0"/>
    <connection from="-1066141963" to="-685699641#6" fromLane="0" toLane="0"/>
    <connection from="-1066141963" to="1066141963" fromLane="0" toLane="0"/>

    <connection from="-1066141964" to="685699641#5" fromLane="0" toLane="0"/>
    <connection from="-1066141964" to="-685699641#4" fromLane="0" toLane="0"/>
    <connection from="-1066141964" to="1066141964" fromLane="0" toLane="0"/>

    <connection from="-1066141965" to="1066141965" fromLane="0" toLane="0"/>

    <connection from="-1066141966" to="1066141966" fromLane="0" toLane="0"/>

    <connection from="-1066141967#0" to="1066141967#0" fromLane="0" toLane="0"/>

    <connection from="-1066141967#1" to="-685699642#5" fromLane="0" toLane="0"/>
    <connection from="-1066141967#1" to="-1066141967#0" fromLane="0" toLane="0"/>
    <connection from="-1066141967#1" to="685699642#6" fromLane="0" toLane="0"/>
    <connection from="-1066141967#1" to="1066141967#1" fromLane="0" toLane="0"/>

    <connection from="-1066141968#0" to="1066141968#0" fromLane="0" toLane="0"/>

    <connection from="-1066141968#1" to="-685699642#4" fromLane="0" toLane="0"/>
    <connection from="-1066141968#1" to="-1066141968#0" fromLane="0" toLane="0"/>
    <connection from="-1066141968#1" to="685699642#5" fromLane="0" toLane="0"/>
    <connection from="-1066141968#1" to="1066141968#1" fromLane="0" toLane="0"/>

    <connection from="-1066141969" to="-1066141970#0" fromLane="0" toLane="0"/>
    <connection from="-1066141969" to="1066141970#1" fromLane="0" toLane="0"/>
    <connection from="-1066141969" to="1066141969" fromLane="0" toLane="0"/>

    <connection from="-1066141970#0" to="25321296#2" fromLane="0" toLane="0"/>
    <connection from="-1066141970#0" to="-25321296#1" fromLane="0" toLane="0"/>
    <connection from="-1066141970#0" to="1066141970#0" fromLane="0" toLane="0"/>

    <connection from="-1066141970#1" to="1066141969" fromLane="0" toLane="0"/>
    <connection from="-1066141970#1" to="-1066141970#0" fromLane="0" toLane="0"/>
    <connection from="-1066141970#1" to="1066141970#1" fromLane="0" toLane="0"/>

    <connection from="-1066141971#0" to="-84015857#0" fromLane="0" toLane="0"/>
    <connection from="-1066141971#0" to="84015857#1" fromLane="0" toLane="0"/>
    <connection from="-1066141971#0" to="1066141971#0" fromLane="0" toLane="0"/>

    <connection from="-1066141971#1" to="1066141958" fromLane="0" toLane="0"/>
    <connection from="-1066141971#1" to="-1066141971#0" fromLane="0" toLane="0"/>
    <connection from="-1066141971#1" to="1066141971#1" fromLane="0" toLane="0"/>

    <connection from="-1066141971#2" to="-1066141971#1" fromLane="0" toLane="0"/>
    <connection from="-1066141971#2" to="-1066141959" fromLane="0" toLane="0"/>