<edges xmlns:xsi="http://www.w3.org/2001/XMLSchema-instance" version="1.20" xsi:noNamespaceSchemaLocation="http://sumo.dlr.de/xsd/edges_file.xsd">
    <location netOffset="-474925.99,-5406504.64" convBoundary="0.00,0.00,8346.87,5661.82" origBoundary="2.657941,48.811123,2.771971,48.862127" projParameter="+proj=utm +zone=31 +ellps=WGS84 +datum=WGS84 +units=m +no_defs" />

    <edge id="-1008296837#0" from="5599822593" to="1025173283" priority="11" type="highway.secondary" numLanes="1" speed="25.00" shape="6011.25,3518.34 5912.07,3446.20 5873.32,3420.51 5859.36,3411.22" disallow="tram rail_urban rail rail_electric rail_fast ship container cable_car subway aircraft wheelchair scooter drone" />
    <edge id="-1008296837#1" from="254845503" to="5599822593" priority="11" type="highway.secondary" numLanes="1" speed="25.00" shape="6288.96,3717.20 6100.99,3583.47 6011.25,3518.34" disallow="tram rail_urban rail rail_electric rail_fast ship container cable_car subway aircraft wheelchair scooter drone" />
    <edge id="-1008296838#0" from="5537640621" to="1583653976" priority="11" type="highway.secondary" numLanes="1" speed="13.89" shape="4472.35,3086.93 4464.82,3085.50 4462.41,3085.08" disallow="tram rail_urban rail rail_electric rail_fast ship container cable_car subway aircraft wheelchair scooter drone" />
    <edge id="-1008296838#1" from="2902747609" to="5537640621" priority="11" type="highway.secondary" numLanes="1" speed="13.89" disallow="tram rail_urban rail rail_electric rail_fast ship container cable_car subway aircraft wheelchair scooter drone" />
    <edge id="-1008296838#2" from="5522747354" to="2902747609" priority="11" type="highway.secondary" numLanes="1" speed="13.89" disallow="tram rail_urban rail rail_electric rail_fast ship container cable_car subway aircraft wheelchair scooter drone" />
    <edge id="-1008296839#0" from="1583941386" to="5522747357" priority="10" type="highway.tertiary" numLanes="1" speed="13.89" disallow="tram rail_urban rail rail_electric rail_fast ship container cable_car subway aircraft wheelchair scooter drone">
        <param key="ref" value="D 5" />
    </edge>
    <edge id="-1008296839#1" from="1583941414" to="1583941386" priority="10" type="highway.tertiary" numLanes="1" speed="13.89" disallow="tram rail_urban rail rail_electric rail_fast ship container cable_car subway aircraft wheelchair scooter drone">
        <param key="ref" value="D 5" />
    </edge>
    <edge id="-1008296839#2" from="5522747356" to="1583941414" priority="10" type="highway.tertiary" numLanes="1" speed="13.89" disallow="tram rail_urban rail rail_electric rail_fast ship container cable_car subway aircraft wheelchair scooter drone">
        <param key="ref" value="D 5" />
    </edge>
    <edge id="-1008296839#3" from="1583653986" to="5522747356" priority="10" type="highway.tertiary" numLanes="1" speed="13.89" disallow="tram rail_urban rail rail_electric rail_fast ship container cable_car subway aircraft wheelchair scooter drone">
        <param key="ref" value="D 5" />
    </edge>
    <edge id="-1008296839#4" from="625195119" to="1583653986" priority="10" type="highway.tertiary" numLanes="1" speed="13.89" disallow="tram rail_urban rail rail_electric rail_fast ship container cable_car subway aircraft wheelchair scooter drone">
        <param key="ref" value="D 5" />
    </edge>
    <edge id="-1008296839#5" from="276095617" to="625195119" priority="10" type="highway.tertiary" numLanes="1" speed="13.89" disallow="tram rail_urban rail rail_electric rail_fast ship container cable_car subway aircraft wheelchair scooter drone">
        <param key="ref" value="D 5" />
    </edge>
    <edge id="-1008296840" from="3089404552" to="1547257623" priority="11" type="highway.secondary" numLanes="1" speed="27.78" shape="5951.93,2878.90 5997.78,2884.15 6069.75,2892.30 6212.57,2908.81 6330.80,2922.05 6462.95,2936.90 6503.47,2941.02" disallow="tram rail_urban rail rail_electric rail_fast ship container cable_car subway aircraft wheelchair scooter drone">
        <param key="ref" value="D 406" />
    </edge>
    <edge id="-1012821130#0" from="8656149585" to="275865802" priority="10" type="highway.tertiary" numLanes="1" speed="8.33" shape="2914.98,2539.93 2915.03,2535.03 2915.07,2531.12" disallow="tram rail_urban rail rail_electric rail_fast ship container cable_car subway aircraft wheelchair scooter drone">
        <param key="ref" value="D 35E" />
    </edge>
    <edge id="-1012821150" from="276171945" to="276083054" priority="10" type="highway.tertiary" numLanes="1" speed="22.22" disallow="tram rail_urban rail rail_electric rail_fast ship container cable_car subway aircraft wheelchair scooter drone">
        <param key="ref" value="D 35E" />
    </edge>
    <edge id="-1012821155" from="275598736" to="8656149585" priority="10" type="highway.tertiary" numLanes="1" speed="8.33" shape="2916.19,2711.28 2914.90,2662.03 2914.86,2547.51 2914.98,2539.93" disallow="tram rail_urban rail rail_electric rail_fast ship container cable_car subway aircraft wheelchair scooter drone">
        <param key="ref" value="D 35E" />
    </edge>
    <edge id="-103482562#0" from="1194795170" to="1194795166" priority="3" type="highway.residential" numLanes="1" speed="13.89" shape="4460.97,2477.03 4452.26,2469.49 4478.71,2402.46 4469.19,2398.40 4476.09,2380.73" disallow="pedestrian tram rail_urban rail rail_electric rail_fast ship container cable_car subway aircraft wheelchair scooter drone" />
    <edge id="-103482562#1" from="1194795165" to="1194795170" priority="3" type="highway.residential" numLanes="1" speed="13.89" shape="4433.43,2603.89 4434.43,2598.01 4439.54,2566.75 4446.91,2561.29 4453.96,2522.67 4447.09,2514.03 4460.97,2477.03" disallow="pedestrian tram rail_urban rail rail_electric rail_fast ship container cable_car subway aircraft wheelchair scooter drone" />
    <edge id="-1034989096" from="603028250" to="603028237" priority="3" type="highway.residential" numLanes="1" speed="13.89" shape="3607.47,3172.45 3595.16,3172.50 3571.87,3175.72 3561.53,3179.67" disallow="tram rail_urban rail rail_electric rail_fast ship container cable_car subway aircraft wheelchair scooter drone" />
    <edge id="-1056450055#0" from="275593995" to="275593576" priority="10" type="highway.tertiary" numLanes="1" speed="13.89" shape="3285.64,3432.12 3371.51,3441.93 3379.87,3442.89 3382.42,3443.18" width="2.50" disallow="tram rail_urban rail rail_electric rail_fast ship container cable_car subway aircraft wheelchair scooter drone" />
    <edge id="-1056450055#1" from="9707342178" to="275593995" priority="10" type="highway.tertiary" numLanes="1" speed="13.89" width="2.50" disallow="tram rail_urban rail rail_electric rail_fast ship container cable_car subway aircraft wheelchair scooter drone" />
    <edge id="-1056450055#2" from="5522408174" to="9707342178" priority="10" type="highway.tertiary" numLanes="1" speed="13.89" width="2.50" disallow="tram rail_urban rail rail_electric rail_fast ship container cable_car subway aircraft wheelchair scooter drone" />
    <edge id="-1056450055#3" from="5599822559" to="5522408174" priority="10" type="highway.tertiary" numLanes="1" speed="13.89" shape="3179.43,3413.40 3191.76,3414.61 3256.42,3426.63" width="2.50" disallow="tram rail_urban rail rail_electric rail_fast ship container cable_car subway aircraft wheelchair scooter drone" />
    <edge id="-1056450055#4" from="5599822557" to="5599822559" priority="10" type="highway.tertiary" numLanes="1" speed="13.89" shape="3162.88,3413.27 3169.57,3412.43 3179.43,3413.40" width="2.50" disallow="tram rail_urban rail rail_electric rail_fast ship container cable_car subway aircraft wheelchair scooter drone" />
    <edge id="-1056450055#5" from="275594005" to="5599822557" priority="10" type="highway.tertiary" numLanes="1" speed="13.89" width="2.50" disallow="tram rail_urban rail rail_electric rail_fast ship container cable_car subway aircraft wheelchair scooter drone" />
    <edge id="-1056450055#6" from="1603469486" to="275594005" priority="10" type="highway.tertiary" numLanes="1" speed="13.89" width="2.50" disallow="tram rail_urban rail rail_electric rail_fast ship container cable_car subway aircraft wheelchair scooter drone" />
    <edge id="-1056450055#7" from="275594014" to="1603469486" priority="10" type="highway.tertiary" numLanes="1" speed="13.89" shape="3123.90,3428.82 3131.64,3425.55 3134.79,3423.76" width="2.50" disallow="tram rail_urban rail rail_electric rail_fast ship container cable_car subway aircraft wheelchair scooter drone" />
    <edge id="-1056450056" from="275594038" to="275865789" priority="10" type="highway.tertiary" numLanes="1" speed="22.22" shape="2895.12,3467.24 2891.12,3459.17 2888.15,3453.17 2887.90,3450.46 2884.54,3430.67 2881.36,3426.85" disallow="tram rail_urban rail rail_electric rail_fast ship container cable_car subway aircraft wheelchair scooter drone">
        <param key="ref" value="D 35E" />
    </edge>
    <edge id="-1056450057" from="275594038" to="2793254255" priority="10" type="highway.tertiary" numLanes="1" speed="22.22" shape="2895.12,3467.24 2896.54,3480.46 2895.46,3491.86 2893.72,3501.79 2893.26,3507.33" disallow="tram rail_urban rail rail_electric rail_fast ship container cable_car subway aircraft wheelchair scooter drone">
        <param key="ref" value="D 35E" />
    </edge>
    <edge id="-1058616370" from="8201698351" to="5586192859" priority="10" type="highway.tertiary" numLanes="1" speed="22.22" shape="5534.06,2825.07 5532.91,2830.89 5496.72,3034.62" disallow="tram rail_urban rail rail_electric rail_fast ship container cable_car subway aircraft wheelchair scooter drone" />
    <edge id="-1058616373" from="8201698349" to="1547257909" priority="3" type="highway.residential" numLanes="1" speed="13.89" shape="5554.27,2714.20 5563.95,2715.88 5586.06,2719.73 5672.05,2735.65 5657.37,2822.85 5653.91,2843.46" allow="emergency authority bus bicycle" />
    <edge id="-1058618123" from="9727328595" to="9727328594" priority="3" type="highway.residential" numLanes="1" speed="13.89" disallow="tram rail_urban rail rail_electric rail_fast ship container cable_car subway aircraft wheelchair scooter drone" />
    <edge id="-1066159925" from="277363225" to="8201698341" priority="3" type="highway.residential" numLanes="1" speed="13.89" disallow="tram rail_urban rail rail_electric rail_fast ship container cable_car subway aircraft wheelchair scooter drone" />
    <edge id="-1068773733#0" from="1039071285" to="1039071749" priority="3" type="highway.residential" numLanes="1" speed="13.89" shape="4070.30,4534.45 4066.65,4545.62 4044.27,4566.71 4040.88,4571.61 4040.10,4576.13 4037.46,4619.58" disallow="tram rail_urban rail rail_electric rail_fast ship container cable_car subway aircraft wheelchair scooter drone" />
    <edge id="-1068773733#1" from="1039072249" to="1039071285" priority="3" type="highway.residential" numLanes="1" speed="13.89" disallow="tram rail_urban rail rail_electric rail_fast ship container cable_car subway aircraft wheelchair scooter drone" />
    <edge id="-1073853011" from="9850361226" to="2094930670" priority="11" type="highway.secondary" numLanes="1" speed="27.78" shape="524.25,3859.22 561.76,3810.00 593.79,3766.87 604.16,3748.93 610.90,3734.84 615.71,3720.93 621.79,3698.84 635.59,3655.51 651.92,3602.39 665.05,3565.97 681.36,3516.26" disallow="tram rail_urban rail rail_electric rail_fast ship container cable_car subway aircraft wheelchair scooter drone">
        <param key="ref" value="D 418" />
    </edge>
    <edge id="-1094323426#0" from="12688676474" to="9195788410" priority="4" type="highway.unclassified" numLanes="1" speed="13.89" disallow="tram rail_urban rail rail_electric rail_fast ship container cable_car subway aircraft wheelchair scooter drone" />
    <edge id="-1094323426#1" from="10084828894" to="12688676474" priority="4" type="highway.unclassified" numLanes="1" speed="13.89" shape="1165.66,1083.79 1139.34,1207.07 1095.10,1398.58 1086.41,1437.76" disallow="tram rail_urban rail rail_electric rail_fast ship container cable_car subway aircraft wheelchair scooter drone" />
    <edge id="-1099608655#0" from="5527707917" to="276222217" priority="11" type="highway.secondary" numLanes="1" speed="13.89" disallow="tram rail_urban rail rail_electric rail_fast ship container cable_car subway aircraft wheelchair scooter drone" />
    <edge id="-1099608655#1" from="4318070065" to="5527707917" priority="11" type="highway.secondary" numLanes="1" speed="13.89" disallow="tram rail_urban rail rail_electric rail_fast ship container cable_car subway aircraft wheelchair scooter drone" />
    <edge id="-1099608655#2" from="4318070067" to="4318070065" priority="11" type="highway.secondary" numLanes="1" speed="13.89" disallow="tram rail_urban rail rail_electric rail_fast ship container cable_car subway aircraft wheelchair scooter drone" />
    <edge id="-1099608655#3" from="2902747612" to="4318070067" priority="11" type="highway.secondary" numLanes="1" speed="13.89" shape="5240.24,3223.22 5211.44,3218.08 5199.73,3215.99" disallow="tram rail_urban rail rail_electric rail_fast ship container cable_car subway aircraft wheelchair scooter drone" />
    <edge id="-1099608655#4" from="1583654079" to="2902747612" priority="11" type="highway.secondary" numLanes="1" speed="13.89" shape="5315.40,3236.61 5246.21,3224.27 5240.24,3223.22" disallow="tram rail_urban rail rail_electric rail_fast ship container cable_car subway aircraft wheelchair scooter drone" />
    <edge id="-1099608655#5" from="1582765808" to="1583654079" priority="11" type="highway.secondary" numLanes="1" speed="13.89" disallow="tram rail_urban rail rail_electric rail_fast ship container cable_car subway aircraft wheelchair scooter drone" />
    <edge id="-1103164283#0" from="2094224370" to="303300546" priority="4" type="highway.unclassified" numLanes="1" speed="13.89" disallow="tram rail_urban rail rail_electric rail_fast ship container cable_car subway aircraft wheelchair scooter drone" />
    <edge id="-1103164283#1" from="2094224388" to="2094224370" priority="4" type="highway.unclassified" numLanes="1" speed="13.89" shape="735.48,3016.08 725.90,3011.44 713.21,3004.61" disallow="tram rail_urban rail rail_electric rail_fast ship container cable_car subway aircraft wheelchair scooter drone" />
    <edge id="-1103164283#2" from="303300547" to="2094224388" priority="4" type="highway.unclassified" numLanes="1" speed="13.89" disallow="tram rail_urban rail rail_electric rail_fast ship container cable_car subway aircraft wheelchair scooter drone" />
    <edge id="-1103164283#3" from="303300548" to="303300547" priority="4" type="highway.unclassified" numLanes="1" speed="13.89" shape="825.74,3066.99 821.90,3064.34 784.50,3038.68 760.24,3026.92" disallow="tram rail_urban rail rail_electric rail_fast ship container cable_car subway aircraft wheelchair scooter drone" />
    <edge id="-1103197944" from="303300546" to="2094224387" priority="4" type="highway.unclassified" numLanes="1" speed="13.89" shape="705.44,3001.17 699.81,2998.70 693.16,2995.68" disallow="tram rail_urban rail rail_electric rail_fast ship container cable_car subway aircraft wheelchair scooter drone" />
    <edge id="-1134812032" from="5522747357" to="1325966272" priority="10" type="highway.tertiary" numLanes="1" speed="13.89" disallow="pedestrian tram rail_urban rail rail_electric rail_fast ship container cable_car subway aircraft wheelchair scooter drone">
        <param key="ref" value="D 5" />
    </edge>
    <edge id="-1155222220" from="302851984" to="498242281" priority="4" type="highway.unclassified" numLanes="1" speed="13.89" disallow="tram rail_urban rail rail_electric rail_fast ship container cable_car subway aircraft wheelchair scooter drone" />
    <edge id="-116181446#0" from="1310680260" to="1310680007" priority="3" type="highway.residential" numLanes="1" speed="13.89" shape="800.76,4821.65 813.69,4824.16 903.63,4843.00 906.77,4843.43 911.37,4842.86 914.42,4838.79 915.68,4832.84 920.59,4811.49" disallow="tram rail_urban rail rail_electric rail_fast ship container cable_car subway aircraft wheelchair scooter drone" />
    <edge id="-116181446#1" from="1310680479" to="1310680260" priority="3" type="highway.residential" numLanes="1" speed="13.89" shape="770.43,4830.82 773.79,4823.07 775.72,4820.85 778.62,4819.68 781.98,4820.00 790.81,4820.66 800.76,4821.65" disallow="tram rail_urban rail rail_electric rail_fast ship container cable_car subway aircraft wheelchair scooter drone" />
    <edge id="-116181454" from="1310679615" to="1310680260" priority="3" type="highway.residential" numLanes="1" speed="13.89" shape="807.72,4789.93 806.82,4793.22 806.23,4796.15 800.76,4821.65" disallow="tram rail_urban rail rail_electric rail_fast ship container cable_car subway aircraft wheelchair scooter drone" />
    <edge id="-117755112#0" from="1583654089" to="1583654073" priority="10" type="highway.tertiary" numLanes="1" speed="13.89" disallow="tram rail_urban rail rail_electric rail_fast ship container cable_car subway aircraft wheelchair scooter drone" />
    <edge id="-117755112#1" from="5522756520" to="1583654089" priority="10" type="highway.tertiary" numLanes="1" speed="13.89" shape="4583.68,3375.84 4599.67,3288.72 4605.24,3260.42" disallow="tram rail_urban rail rail_electric rail_fast ship container cable_car subway aircraft wheelchair scooter drone" />
    <edge id="-117755112#2" from="275977308" to="5522756520" priority="10" type="highway.tertiary" numLanes="1" speed="13.89" shape="4581.40,3388.21 4582.40,3385.20 4583.68,3375.84" disallow="tram rail_urban rail rail_electric rail_fast ship container cable_car subway aircraft wheelchair scooter drone" />
    <edge id="-117755114" from="1325966272" to="1325966315" priority="10" type="highway.tertiary" numLanes="1" speed="22.22" disallow="pedestrian tram rail_urban rail rail_electric rail_fast ship container cable_car subway aircraft wheelchair scooter drone">
        <param key="ref" value="D 5" />
    </edge>
    <edge id="-117755115#0" from="10102829834" to="275917145" priority="11" type="highway.secondary" numLanes="1" speed="27.78" shape="3482.14,2749.99 3481.31,2766.77 3480.21,2790.98 3479.76,2810.78 3477.67,2849.53" disallow="tram rail_urban rail rail_electric rail_fast ship container cable_car subway aircraft wheelchair scooter drone">
        <param key="ref" value="D 35" />
    </edge>
    <edge id="-117755115#1" from="275917142" to="10102829834" priority="11" type="highway.secondary" numLanes="1" speed="27.78" disallow="tram rail_urban rail rail_electric rail_fast ship container cable_car subway aircraft wheelchair scooter drone">
        <param key="ref" value="D 35" />
    </edge>
    <edge id="-1184863963#0" from="9195788406" to="9195788405" priority="4" type="highway.unclassified" numLanes="1" speed="13.89" allow="emergency authority bus bicycle" />
    <edge id="-1184863963#1" from="12232044823" to="9195788406" priority="4" type="highway.unclassified" numLanes="1" speed="13.89" shape="1108.02,1578.72 1148.19,1587.66 1205.18,1600.62 1244.39,1608.52" allow="emergency authority bus bicycle" />
    <edge id="-1184863963#2" from="9195788410" to="12232044823" priority="4" type="highway.unclassified" numLanes="1" speed="13.89" shape="1057.63,1567.43 1074.58,1571.29 1108.02,1578.72" allow="emergency authority bus bicycle" />
    <edge id="-1207476768#0" from="5522757740" to="1583667168" priority="10" type="highway.tertiary" numLanes="1" speed="13.89" shape="4553.12,3397.82 4469.60,3383.34 4458.24,3381.28" disallow="tram rail_urban rail rail_electric rail_fast ship container cable_car subway aircraft wheelchair scooter drone" />
    <edge id="-1207476768#1" from="275976856" to="5522757740" priority="10" type="highway.tertiary" numLanes="1" speed="13.89" shape="4564.86,3399.89 4560.85,3399.19 4553.12,3397.82" disallow="tram rail_urban rail rail_electric rail_fast ship container cable_car subway aircraft wheelchair scooter drone" />
    <edge id="-1207486474#0" from="5522459900" to="1188934705" priority="10" type="highway.tertiary" numLanes="1" speed="13.89" disallow="tram rail_urban rail rail_electric rail_fast ship container cable_car subway aircraft wheelchair scooter drone" />
    <edge id="-1207486474#1" from="2122649751" to="5522459900" priority="10" type="highway.tertiary" numLanes="1" speed="13.89" disallow="tram rail_urban rail rail_electric rail_fast ship container cable_car subway aircraft wheelchair scooter drone" />
    <edge id="-1207486474#2" from="2122649750" to="2122649751" priority="10" type="highway.tertiary" numLanes="1" speed="13.89" disallow="tram rail_urban rail rail_electric rail_fast ship container cable_car subway aircraft wheelchair scooter drone" />
    <edge id="-1207486474#3" from="625189274" to="2122649750" priority="10" type="highway.tertiary" numLanes="1" speed="13.89" disallow="tram rail_urban rail rail_electric rail_fast ship container cable_car subway aircraft wheelchair scooter drone" />
    <edge id="-1207486474#4" from="275977009" to="625189274" priority="10" type="highway.tertiary" numLanes="1" speed="13.89" shape="3798.76,3506.00 3800.51,3499.89 3819.40,3393.80" disallow="tram rail_urban rail rail_electric rail_fast ship container cable_car subway aircraft wheelchair scooter drone" />
    <edge id="-1207486475#0" from="1583941425" to="1188934705" priority="10" type="highway.tertiary" numLanes="1" speed="13.89" shape="3908.24,3283.45 3859.05,3274.27 3846.31,3271.43 3841.02,3271.33" disallow="tram rail_urban rail rail_electric rail_fast ship container cable_car subway aircraft wheelchair scooter drone" />
    <edge id="-1207486475#1" from="1583941426" to="1583941425" priority="10" type="highway.tertiary" numLanes="1" speed="13.89" disallow="tram rail_urban rail rail_electric rail_fast ship container cable_car subway aircraft wheelchair scooter drone" />
    <edge id="-1207486475#2" from="1583941427" to="1583941426" priority="10" type="highway.tertiary" numLanes="1" speed="13.89" disallow="tram rail_urban rail rail_electric rail_fast ship container cable_car subway aircraft wheelchair scooter drone" />
    <edge id="-1207486475#3" from="1583941428" to="1583941427" priority="10" type="highway.tertiary" numLanes="1" speed="13.89" disallow="tram rail_urban rail rail_electric rail_fast ship container cable_car subway aircraft wheelchair scooter drone" />
    <edge id="-1207486475#4" from="1583941429" to="1583941428" priority="10" type="highway.tertiary" numLanes="1" speed="13.89" disallow="tram rail_urban rail rail_electric rail_fast ship container cable_car subway aircraft wheelchair scooter drone" />
    <edge id="-1207486475#5" from="1583941430" to="1583941429" priority="10" type="highway.tertiary" numLanes="1" speed="13.89" disallow="tram rail_urban rail rail_electric rail_fast ship container cable_car subway aircraft wheelchair scooter drone" />
    <edge id="-1207486475#6" from="5522496761" to="1583941430" priority="10" type="highway.tertiary" numLanes="1" speed="13.89" disallow="tram rail_urban rail rail_electric rail_fast ship container cable_car subway aircraft wheelchair scooter drone" />
    <edge id="-1207486475#7" from="275976011" to="5522496761" priority="10" type="highway.tertiary" numLanes="1" speed="13.89" shape="4150.97,3326.08 4148.22,3325.11 4142.80,3324.65" disallow="tram rail_urban rail rail_electric rail_fast ship container cable_car subway aircraft wheelchair scooter drone" />
    <edge id="-1207486477#0" from="1583654019" to="276095617" priority="10" type="highway.tertiary" numLanes="1" speed="13.89" disallow="tram rail_urban rail rail_electric rail_fast ship container cable_car subway aircraft wheelchair scooter drone" />
    <edge id="-1207486477#1" from="5522754885" to="1583654019" priority="10" type="highway.tertiary" numLanes="1" speed="13.89" disallow="tram rail_urban rail rail_electric rail_fast ship container cable_car subway aircraft wheelchair scooter drone" />
    <edge id="-1207486477#2" from="1583654034" to="5522754885" priority="10" type="highway.tertiary" numLanes="1" speed="13.89" disallow="tram rail_urban rail rail_electric rail_fast ship container cable_car subway aircraft wheelchair scooter drone" />
    <edge id="-1207486477#3" from="1583654058" to="1583654034" priority="10" type="highway.tertiary" numLanes="1" speed="13.89" disallow="tram rail_urban rail rail_electric rail_fast ship container cable_car subway aircraft wheelchair scooter drone" />
    <edge id="-1207741334#0" from="9195788405" to="2466653480" priority="4" type="highway.unclassified" numLanes="1" speed="8.33" shape="1373.05,1635.09 1378.61,1636.23 1480.56,1660.17 1493.96,1665.67" disallow="tram rail_urban rail rail_electric rail_fast ship container cable_car subway aircraft wheelchair scooter drone" />
    <edge id="-1207741334#1" from="9195788404" to="9195788405" priority="4" type="highway.unclassified" numLanes="1" speed="8.33" disallow="tram rail_urban rail rail_electric rail_fast ship container cable_car subway aircraft wheelchair scooter drone" />
    <edge id="-1208058699" from="1583654073" to="1583654058" priority="10" type="highway.tertiary" numLanes="1" speed="13.89" disallow="tram rail_urban rail rail_electric rail_fast ship container cable_car subway aircraft wheelchair scooter drone" />
    <edge id="-1209786785#0" from="5522504812" to="302021363" priority="11" type="highway.secondary" numLanes="1" speed="13.89" disallow="tram rail_urban rail rail_electric rail_fast ship container cable_car subway aircraft wheelchair scooter drone" />
    <edge id="-1209786786#0" from="2902747608" to="5522504812" priority="11" type="highway.secondary" numLanes="1" speed="13.89" shape="4443.63,3081.75 4387.01,3071.71 4362.91,3067.44 4234.33,3044.64" disallow="tram rail_urban rail rail_electric rail_fast ship container cable_car subway aircraft wheelchair scooter drone" />
    <edge id="-1209786786#1" from="1583653976" to="2902747608" priority="11" type="highway.secondary" numLanes="1" speed="13.89" disallow="tram rail_urban rail rail_electric rail_fast ship container cable_car subway aircraft wheelchair scooter drone" />
    <edge id="-1210840088#0" from="303305532" to="273115509" priority="4" type="highway.unclassified" numLanes="1" speed="13.89" shape="1071.27,3927.91 1078.57,3936.37 1081.42,3938.98 1084.49,3941.16 1087.78,3942.52 1091.69,3943.46 1095.77,3943.62 1099.95,3943.57 1109.08,3942.42 1118.37,3940.66 1127.53,3938.32 1132.87,3936.53 1137.53,3934.82 1141.90,3932.88 1145.89,3930.58 1150.89,3927.10 1153.12,3926.14 1155.19,3925.74 1157.27,3926.20" disallow="tram rail_urban rail rail_electric rail_fast ship container cable_car subway aircraft wheelchair scooter drone" />
    <edge id="-1211108253#0" from="12111509650" to="11221295103" priority="2" type="highway.living_street" numLanes="1" speed="2.78" shape="3666.60,2790.46 3664.44,2803.42 3665.04,2802.31 3665.86,2801.38 3666.94,2800.54 3667.96,2800.06 3669.16,2799.67 3670.65,2799.50 3672.16,2799.40 3676.43,2800.08" disallow="tram rail_urban rail rail_electric rail_fast ship container cable_car subway aircraft wheelchair scooter drone" />
    <edge id="-1211108253#1" from="11220621126" to="12111509650" priority="2" type="highway.living_street" numLanes="1" speed="2.78" shape="3678.59,2788.61 3674.21,2787.89 3673.13,2787.62 3672.04,2787.28 3671.13,2786.78 3670.31,2786.14 3669.54,2785.28 3668.92,2784.43 3668.42,2783.51 3667.91,2782.59 3666.60,2790.46" disallow="tram rail_urban rail rail_electric rail_fast ship container cable_car subway aircraft wheelchair scooter drone" />
    <edge id="-1211108253#10" from="11221260807" to="11221260811" priority="2" type="highway.living_street" numLanes="1" speed="2.78" disallow="tram rail_urban rail rail_electric rail_fast ship container cable_car subway aircraft wheelchair scooter drone" />
    <edge id="-1211108253#11" from="11221260810" to="11221260807" priority="2" type="highway.living_street" numLanes="1" speed="2.78" disallow="tram rail_urban rail rail_electric rail_fast ship container cable_car subway aircraft wheelchair scooter drone" />
    <edge id="-1211108253#12" from="11221260805" to="11221260810" priority="2" type="highway.living_street" numLanes="1" speed="2.78" disallow="tram rail_urban rail rail_electric rail_fast ship container cable_car subway aircraft wheelchair scooter drone" />
    <edge id="-1211108253#13" from="11221260808" to="11221260805" priority="2" type="highway.living_street" numLanes="1" speed="2.78" disallow="tram rail_urban rail rail_electric rail_fast ship container cable_car subway aircraft wheelchair scooter drone" />
    <edge id="-1211108253#14" from="11221260806" to="11221260808" priority="2" type="highway.living_street" numLanes="1" speed="2.78" disallow="tram rail_urban rail rail_electric rail_fast ship container cable_car subway aircraft wheelchair scooter drone" />
    <edge id="-1211108253#15" from="11221260809" to="11221260806" priority="2" type="highway.living_street" numLanes="1" speed="2.78" disallow="tram rail_urban rail rail_electric rail_fast ship container cable_car subway aircraft wheelchair scooter drone" />
    <edge id="-1211108253#16" from="11221260753" to="11221260809" priority="2" type="highway.living_street" numLanes="1" speed="2.78" disallow="tram rail_urban rail rail_electric rail_fast ship container cable_car subway aircraft wheelchair scooter drone" />
    <edge id="-1211108253#17" from="11220762169" to="11221260753" priority="2" type="highway.living_street" numLanes="1" speed="2.78" disallow="tram rail_urban rail rail_electric rail_fast ship container cable_car subway aircraft wheelchair scooter drone" />