<?xml version="1.0" encoding="UTF-8"?>

<!-- generated on 2025-04-29 23:59:07 by Eclipse SUMO netconvert Version 1.22.0
<netconvertConfiguration xmlns:xsi="http://www.w3.org/2001/XMLSchema-instance" xsi:noNamespaceSchemaLocation="http://sumo.dlr.de/xsd/netconvertConfiguration.xsd">

    <input>
        <sumo-net-file value="bussy_saint_georges/bussy_saint_georges.net.xml"/>
    </input>

    <output>
        <plain-output-prefix value="bussy_saint_georges/bussy_saint_georges"/>
    </output>

    <processing>
        <geometry.min-radius.fix.railways value="false"/>
        <geometry.max-grade.fix value="false"/>
        <offset.disable-normalization value="true"/>
        <lefthand value="0"/>
    </processing>

    <tls_building>
        <tls.ignore-internal-junction-jam value="1"/>
    </tls_building>

    <junctions>
        <no-turnarounds value="true"/>
        <junctions.corner-detail value="5"/>
        <junctions.limit-turn-speed value="5.50"/>
        <rectangular-lane-cut value="0"/>
    </junctions>

    <pedestrian>
        <walkingareas value="0"/>
    </pedestrian>

</netconvertConfiguration>
-->

<tlLogics version="1.20" xmlns:xsi="http://www.w3.org/2001/XMLSchema-instance" xsi:noNamespaceSchemaLocation="http://sumo.dlr.de/xsd/tllogic_file.xsd">
    <tlLogic id="12110754038" type="static" programID="0" offset="0">
        <phase duration="82" state="GG"/>
        <phase duration="3"  state="yy"/>
        <phase duration="5"  state="rr"/>
    </tlLogic>
    <tlLogic id="12110800519" type="static" programID="0" offset="0">
        <phase duration="82" state="G"/>
        <phase duration="3"  state="y"/>
        <phase duration="5"  state="r"/>
    </tlLogic>
    <tlLogic id="1759258987" type="static" programID="0" offset="0">
        <phase duration="82" state="GG"/>
        <phase duration="3"  state="yy"/>
        <phase duration="5"  state="rr"/>
    </tlLogic>
    <tlLogic id="1759259004" type="static" programID="0" offset="0">
        <phase duration="82" state="GG"/>
        <phase duration="3"  state="yy"/>
        <phase duration="5"  state="rr"/>
    </tlLogic>
    <tlLogic id="1759259021" type="static" programID="0" offset="0">
        <phase duration="82" state="GG"/>
        <phase duration="3"  state="yy"/>
        <phase duration="5"  state="rr"/>
    </tlLogic>
    <tlLogic id="275296602" type="static" programID="0" offset="0">
        <phase duration="42" state="rrrrGGggGGgg"/>
        <phase duration="3"  state="rrrrGyyyyyyy"/>
        <phase duration="42" state="GGGgGrrrrrrr"/>
        <phase duration="3"  state="yyyyGrrrrrrr"/>
    </tlLogic>
    <tlLogic id="2902746967" type="static" programID="0" offset="0">
        <phase duration="42" state="rrrrGGgrrrrGGg"/>
        <phase duration="3"  state="rrrryyyrrrryyy"/>
        <phase duration="42" state="GGggrrrGGggrrr"/>
        <phase duration="3"  state="yyyyrrryyyyrrr"/>
    </tlLogic>
    <tlLogic id="321877751" type="static" programID="0" offset="0">
        <phase duration="42" state="GGggrrrrGGggrrrr"/>
        <phase duration="3"  state="yyyyrrrryyyyrrrr"/>
        <phase duration="42" state="rrrrGGggrrrrGGgg"/>
        <phase duration="3"  state="rrrryyyyrrrryyyy"/>
    </tlLogic>
    <tlLogic id="5522501101" type="static" programID="0" offset="0">
        <phase duration="82" state="G"/>
        <phase duration="3"  state="y"/>
        <phase duration="5"  state="r"/>
    </tlLogic>
    <tlLogic id="5522504015" type="static" programID="0" offset="0">
        <phase duration="82" state="GG"/>
        <phase duration="3"  state="yy"/>
        <phase duration="5"  state="rr"/>
    </tlLogic>
    <tlLogic id="5522504508" type="static" programID="0" offset="0">
        <phase duration="82" state="G"/>
        <phase duration="3"  state="y"/>
        <phase duration="5"  state="r"/>
    </tlLogic>
    <tlLogic id="5522504811" type="static" programID="0" offset="0">
        <phase duration="82" state="GG"/>
        <phase duration="3"  state="yy"/>
        <phase duration="5"  state="rr"/>
    </tlLogic>
    <tlLogic id="5522504812" type="static" programID="0" offset="0">
        <phase duration="82" state="GG"/>
        <phase duration="3"  state="yy"/>
        <phase duration="5"  state="rr"/>
    </tlLogic>
    <tlLogic id="5522505604" type="static" programID="0" offset="0">
        <phase duration="82" state="GG"/>
        <phase duration="3"  state="yy"/>
        <phase duration="5"  state="rr"/>
    </tlLogic>
    <tlLogic id="5522747354" type="static" programID="0" offset="0">
        <phase duration="82" state="GG"/>
        <phase duration="3"  state="yy"/>
        <phase duration="5"  state="rr"/>
    </tlLogic>
    <tlLogic id="5522747355" type="static" programID="0" offset="0">
        <phase duration="82" state="GG"/>
        <phase duration="3"  state="yy"/>
        <phase duration="5"  state="rr"/>
    </tlLogic>
    <tlLogic id="5522747356" type="static" programID="0" offset="0">
        <phase duration="82" state="GG"/>
        <phase duration="3"  state="yy"/>
        <phase duration="5"  state="rr"/>
    </tlLogic>
    <tlLogic id="5522753789" type="static" programID="0" offset="0">
        <phase duration="82" state="G"/>
        <phase duration="3"  state="y"/>
        <phase duration="5"  state="r"/>
    </tlLogic>
    <tlLogic id="5522754885" type="static" programID="0" offset="0">
        <phase duration="82" state="GG"/>
        <phase duration="3"  state="yy"/>
        <phase duration="5"  state="rr"/>
    </tlLogic>
    <tlLogic id="5527778074" type="static" programID="0" offset="0">
        <phase duration="82" state="G"/>
        <phase duration="3"  state="y"/>
        <phase duration="5"  state="r"/>
    </tlLogic>
    <tlLogic id="5527795799" type="static" programID="0" offset="0">
        <phase duration="82" state="GG"/>
        <phase duration="3"  state="yy"/>
        <phase duration="5"  state="rr"/>
    </tlLogic>
    <tlLogic id="5536149703" type="static" programID="0" offset="0">
        <phase duration="82" state="G"/>
        <phase duration="3"  state="y"/>
        <phase duration="5"  state="r"/>
    </tlLogic>
    <tlLogic id="5586192851" type="static" programID="0" offset="0">
        <phase duration="82" state="G"/>
        <phase duration="3"  state="y"/>
        <phase duration="5"  state="r"/>
    </tlLogic>
    <tlLogic id="5714953827" type="static" programID="0" offset="0">
        <phase duration="82" state="G"/>
        <phase duration="3"  state="y"/>
        <phase duration="5"  state="r"/>
    </tlLogic>
    <tlLogic id="5714991841" type="static" programID="0" offset="0">
        <phase duration="82" state="G"/>
        <phase duration="3"  state="y"/>
        <phase duration="5"  state="r"/>
    </tlLogic>
    <tlLogic id="693663269" type="static" programID="0" offset="0">
        <phase duration="40" state="rrrrGGggrrrrGGgg"/>
        <phase duration="5"  state="rrrryyyyrrrryyyy"/>
        <phase duration="40" state="GGggrrrrGGggrrrr"/>
        <phase duration="5"  state="yyyyrrrryyyyrrrr"/>
    </tlLogic>
    <tlLogic id="9790616905" type="static" programID="0" offset="0">
        <phase duration="82" state="GG"/>
        <phase duration="3"  state="yy"/>
        <phase duration="5"  state="rr"/>
    </tlLogic>
    <tlLogic id="joinedS_10269289715_276080655_7289262978_7289280594_#2more" type="static" programID="0" offset="0">
        <phase duration="7"  state="Grrrrrrrrrrrrrrrrrrrrrrrr"/>
        <phase duration="3"  state="yrrrrrrrrrrrrrrrrrrrrrrrr"/>
        <phase duration="7"  state="rGrrrrrrrrrrrrrrrrrrrrrrr"/>
        <phase duration="3"  state="ryrrrrrrrrrrrrrrrrrrrrrrr"/>
        <phase duration="7"  state="rrrrrrGGGGrrrrrrrrrrrGrrG"/>
        <phase duration="3"  state="rrrrrryyyyrrrrrrrrrrrGrrG"/>
        <phase duration="7"  state="rrrrrrrrrrrrrrGGGGrrrGrrG"/>
        <phase duration="3"  state="rrrrrrrrrrrrrryyyyrrryrry"/>
        <phase duration="7"  state="rrrrrrrrrrrrrrrrrrGrrrrrr"/>
        <phase duration="3"  state="rrrrrrrrrrrrrrrrrryrrrrrr"/>
        <phase duration="7"  state="rrrrrrrrrrrrrrrrrrrGrrrrr"/>
        <phase duration="3"  state="rrrrrrrrrrrrrrrrrrryrrrrr"/>
        <phase duration="7"  state="rrrrrrrrrrrrrrrrrrrrGrrrr"/>
        <phase duration="3"  state="rrrrrrrrrrrrrrrrrrrryrrrr"/>
        <phase duration="7"  state="rrrrrrrrrrGGGGrrrrrrrGGrG"/>
        <phase duration="3"  state="rrrrrrrrrryyyyrrrrrrrGyrG"/>
        <phase duration="7"  state="rrGGGGrrrrrrrrrrrrrrrGrGG"/>
        <phase duration="3"  state="rryyyyrrrrrrrrrrrrrrryryy"/>
    </tlLogic>
    <tlLogic id="joinedS_10271132830_1759258972_1759258989_1759259000_#2more" type="static" programID="0" offset="0">
        <phase duration="7"  state="Grrrrrrrrrrrrrrrrrrrrrrrr"/>
        <phase duration="3"  state="yrrrrrrrrrrrrrrrrrrrrrrrr"/>
        <phase duration="7"  state="rGGrGrrrrrrrrrrrrGGGGrrrr"/>
        <phase duration="3"  state="rGyrGrrrrrrrrrrrryyyyrrrr"/>
        <phase duration="7"  state="rGrGGrrrrGGGGrrrrrrrrrrrr"/>
        <phase duration="3"  state="ryryyrrrryyyyrrrrrrrrrrrr"/>
        <phase duration="7"  state="rrrrrGrrrrrrrrrrrrrrrrrrr"/>
        <phase duration="3"  state="rrrrryrrrrrrrrrrrrrrrrrrr"/>
        <phase duration="7"  state="rrrrrrGrrrrrrrrrrrrrrrrrr"/>
        <phase duration="3"  state="rrrrrryrrrrrrrrrrrrrrrrrr"/>
        <phase duration="7"  state="rrrrrrrGrrrrrrrrrrrrrrrrr"/>
        <phase duration="3"  state="rrrrrrryrrrrrrrrrrrrrrrrr"/>
        <phase duration="7"  state="rrrrrrrrGrrrrrrrrrrrrrrrr"/>
        <phase duration="3"  state="rrrrrrrryrrrrrrrrrrrrrrrr"/>
        <phase duration="7"  state="rGrrGrrrrrrrrGGGGrrrrrrrr"/>
        <phase duration="3"  state="rGrrGrrrrrrrryyyyrrrrrrrr"/>
        <phase duration="7"  state="rGrrGrrrrrrrrrrrrrrrrGGGG"/>
        <phase duration="3"  state="ryrryrrrrrrrrrrrrrrrryyyy"/>
    </tlLogic>
    <tlLogic id="joinedS_2098206022_2098206029_2098206039_254842494_#1more" type="static" programID="0" offset="0">
        <phase duration="12" state="GGgrrrrGggrrrrGGGrrrGGgrrrrrrrrGggGGGrrrrrrrrrrGGGrrrrrrr"/>
        <phase duration="3"  state="yyyrrrryyyrrrrGGGrrryyyrrrrrrrryyyyyyrrrrrrrrrryyyrrrrrrr"/>
        <phase duration="12" state="rrrGGGGrrrrrrrGGGrrrrrrrrrrGGGGrrrrrrGggGGgrrrrrrrGGGGrrr"/>
        <phase duration="3"  state="rrryyyyrrrrrrryyyrrrrrrrrrryyyyrrrrrryyyyyyrrrrrrryyyyrrr"/>
        <phase duration="12" state="rrrrrrrGGGGGGGrrrrrrrrrrrrrrrrrGGGGGGrrrrrrGGGGrrrrrrrrrr"/>
        <phase duration="3"  state="rrrrrrrGGGGyyGrrrrrrrrrrrrrrrrrgggGGGrrrrrrggggrrrrrrrrrr"/>
        <phase duration="12" state="rrrrrrrGGGGrrGgggGggGgggrrgGrrGgggGGGrrrrrrggggGGgGgggGrg"/>
        <phase duration="3"  state="rrrrrrrGGGyrrygggyyyyyygrrgyrryyyyGGGrrrrrryyyyGGgyyyyyry"/>
        <phase duration="12" state="rrrrrrrGGGrrrrGGGrrrrrrGGGGrrrrrrrGGGrrrrrrrrrrGGGrrrrrrr"/>
        <phase duration="3"  state="rrrrrrrGGGrrrrGGGrrrrrryyyyrrrrrrryyyrrrrrrrrrrGGgrrrrrrr"/>
        <phase duration="12" state="rrrrrrrGGGrrrrGGGrrrrrrrrrrGGGGrrrrrrGggGGgrrrrGGgrrrrGGg"/>
        <phase duration="3"  state="rrrrrrrGggrrrrGGGrrrrrrrrrryyyyrrrrrryyyyyyrrrrGGgrrrryyy"/>
    </tlLogic>

    <connection from="-1008296839#3" to="-1008296839#2" fromLane="0" toLane="0" tl="5522747356" linkIndex="1"/>
    <connection from="-1207486477#2" to="-1207486477#1" fromLane="0" toLane="0" tl="5522754885" linkIndex="1"/>
    <connection from="-1209786786#0" to="-1209786785#0" fromLane="0" toLane="0" tl="5522504812" linkIndex="0"/>
    <connection from="-1307929468" to="-1008296838#2" fromLane="0" toLane="0" tl="5522747354" linkIndex="0"/>
    <connection from="-164272028#4" to="-164272028#3" fromLane="0" toLane="0" tl="joinedS_10271132830_1759258972_1759258989_1759259000_#2more" linkIndex="6"/>
    <connection from="-164272030#0" to="-296087333#5" fromLane="0" toLane="0" tl="joinedS_10271132830_1759258972_1759258989_1759259000_#2more" linkIndex="21"/>
    <connection from="-164272030#0" to="-164272028#6" fromLane="0" toLane="0" tl="joinedS_10271132830_1759258972_1759258989_1759259000_#2more" linkIndex="22"/>
    <connection from="-164272030#0" to="560395151#0" fromLane="0" toLane="0" tl="joinedS_10271132830_1759258972_1759258989_1759259000_#2more" linkIndex="23"/>
    <connection from="-164272030#0" to="164272030#0" fromLane="0" toLane="0" tl="joinedS_10271132830_1759258972_1759258989_1759259000_#2more" linkIndex="24"/>
    <connection from="-164272030#3" to="-164272030#1" fromLane="0" toLane="0" tl="joinedS_10271132830_1759258972_1759258989_1759259000_#2more" linkIndex="8"/>
    <connection from="-192721829#0" to="199822887" fromLane="0" toLane="0" tl="joinedS_2098206022_2098206029_2098206039_254842494_#1more" linkIndex="0"/>
    <connection from="-192721829#0" to="-682386390" fromLane="0" toLane="0" tl="joinedS_2098206022_2098206029_2098206039_254842494_#1more" linkIndex="1"/>
    <connection from="-192721829#0" to="192721829#0" fromLane="0" toLane="0" tl="joinedS_2098206022_2098206029_2098206039_254842494_#1more" linkIndex="2"/>
    <connection from="-25266408#0" to="25343599" fromLane="0" toLane="0" tl="275296602" linkIndex="8"/>
    <connection from="-25266408#0" to="-710730845#2" fromLane="0" toLane="0" tl="275296602" linkIndex="9"/>
    <connection from="-25266408#0" to="25329978#0" fromLane="0" toLane="0" tl="275296602" linkIndex="10"/>
    <connection from="-25266408#0" to="25266408#0" fromLane="0" toLane="0" tl="275296602" linkIndex="11"/>
    <connection from="-25329887#3" to="-25329887#2" fromLane="0" toLane="0" tl="1759259021" linkIndex="0"/>
    <connection from="-25329978#0" to="25266408#0" fromLane="0" toLane="0" tl="275296602" linkIndex="0"/>
    <connection from="-25329978#0" to="25343599" fromLane="0" toLane="0" tl="275296602" linkIndex="1"/>
    <connection from="-25329978#0" to="-710730845#2" fromLane="0" toLane="0" tl="275296602" linkIndex="2"/>
    <connection from="-25329978#0" to="25329978#0" fromLane="0" toLane="0" tl="275296602" linkIndex="3"/>
    <connection from="-27510758#10" to="-27510758#9" fromLane="0" toLane="0" tl="5522505604" linkIndex="0"/>
    <connection from="-27510758#8" to="-27510758#7" fromLane="0" toLane="0" tl="12110754038" linkIndex="0"/>
    <connection from="-286595747#2" to="-286595747#1" fromLane="0" toLane="0" tl="joinedS_10269289715_276080655_7289262978_7289280594_#2more" linkIndex="21"/>
    <connection from="-286595754#3" to="-49247621#0" fromLane="0" toLane="0" tl="2902746967" linkIndex="11"/>
    <connection from="-286595754#3" to="-286595754#2" fromLane="0" toLane="0" tl="2902746967" linkIndex="12"/>
    <connection from="-286595754#3" to="49247621#1" fromLane="0" toLane="0" tl="2902746967" linkIndex="13"/>
    <connection from="-286595764#4" to="-286595764#3" fromLane="0" toLane="0" tl="9790616905" linkIndex="1"/>
    <connection from="-296087333#2" to="-296087333#0" fromLane="0" toLane="0" tl="1759259004" linkIndex="0"/>
    <connection from="-296087333#4" to="-296087333#2" fromLane="0" toLane="0" tl="1759258987" linkIndex="0"/>
    <connection from="-296087333#5" to="-296087333#4" fromLane="0" toLane="0" tl="joinedS_10271132830_1759258972_1759258989_1759259000_#2more" linkIndex="1"/>
    <connection from="-297349613#0" to="57833709#0" fromLane="0" toLane="0" tl="321877751" linkIndex="0"/>
    <connection from="-297349613#0" to="-297349616#2" fromLane="0" toLane="0" tl="321877751" linkIndex="1"/>
    <connection from="-297349613#0" to="-297349615#7" fromLane="0" toLane="0" tl="321877751" linkIndex="2"/>
    <connection from="-297349613#0" to="297349613#0" fromLane="0" toLane="0" tl="321877751" linkIndex="3"/>
    <connection from="-297704256#2" to="-297704256#1" fromLane="0" toLane="0" tl="joinedS_10269289715_276080655_7289262978_7289280594_#2more" linkIndex="19"/>
    <connection from="-375942122#5" to="-55178294#4" fromLane="0" toLane="0" tl="693663269" linkIndex="0"/>
    <connection from="-375942122#5" to="-375942122#4" fromLane="0" toLane="0" tl="693663269" linkIndex="1"/>
    <connection from="-375942122#5" to="55178294#5" fromLane="0" toLane="0" tl="693663269" linkIndex="2"/>
    <connection from="-375942122#5" to="375942122#5" fromLane="0" toLane="0" tl="693663269" linkIndex="3"/>
    <connection from="-47358647#0" to="-286595747#2" fromLane="0" toLane="0" tl="joinedS_10269289715_276080655_7289262978_7289280594_#2more" linkIndex="14"/>
    <connection from="-47358647#0" to="-297704256#4" fromLane="0" toLane="0" tl="joinedS_10269289715_276080655_7289262978_7289280594_#2more" linkIndex="15"/>
    <connection from="-47358647#0" to="710871898#0" fromLane="0" toLane="0" tl="joinedS_10269289715_276080655_7289262978_7289280594_#2more" linkIndex="16"/>
    <connection from="-47358647#0" to="47358647#0" fromLane="0" toLane="0" tl="joinedS_10269289715_276080655_7289262978_7289280594_#2more" linkIndex="17"/>
    <connection from="-47358647#2" to="-47358647#1" fromLane="0" toLane="0" tl="joinedS_10269289715_276080655_7289262978_7289280594_#2more" linkIndex="1"/>
    <connection from="-49247561#1" to="-49247561#0" fromLane="0" toLane="0" tl="5522504015" linkIndex="1"/>
    <connection from="-49247621#1" to="286595754#3" fromLane="0" toLane="0" tl="2902746967" linkIndex="0"/>
    <connection from="-49247621#1" to="-49247621#0" fromLane="0" toLane="0" tl="2902746967" linkIndex="1"/>
    <connection from="-49247621#1" to="-286595754#2" fromLane="0" toLane="0" tl="2902746967" linkIndex="2"/>
    <connection from="-49247621#1" to="49247621#1" fromLane="0" toLane="0" tl="2902746967" linkIndex="3"/>
    <connection from="-519902513#0" to="-1307929469" fromLane="0" toLane="0" tl="5522747355" linkIndex="0"/>
    <connection from="-55178294#5" to="375942122#5" fromLane="0" toLane="0" tl="693663269" linkIndex="4"/>
    <connection from="-55178294#5" to="-55178294#4" fromLane="0" toLane="0" tl="693663269" linkIndex="5"/>
    <connection from="-55178294#5" to="-375942122#4" fromLane="0" toLane="0" tl="693663269" linkIndex="6"/>
    <connection from="-55178294#5" to="55178294#5" fromLane="0" toLane="0" tl="693663269" linkIndex="7"/>
    <connection from="-555483744#1" to="-555483744#0" fromLane="0" toLane="0" tl="joinedS_2098206022_2098206029_2098206039_254842494_#1more" linkIndex="14"/>
    <connection from="-555483744#1" to="199822897#1" fromLane="0" toLane="1" tl="joinedS_2098206022_2098206029_2098206039_254842494_#1more" linkIndex="15"/>
    <connection from="-555483744#1" to="555483744#1" fromLane="0" toLane="0" tl="joinedS_2098206022_2098206029_2098206039_254842494_#1more" linkIndex="16"/>
    <connection from="-555483744#2" to="199822898" fromLane="0" toLane="0" tl="joinedS_2098206022_2098206029_2098206039_254842494_#1more" linkIndex="20"/>
    <connection from="-555483744#2" to="-555483744#1" fromLane="0" toLane="0" tl="joinedS_2098206022_2098206029_2098206039_254842494_#1more" linkIndex="21"/>
    <connection from="-555483744#2" to="555483744#2" fromLane="0" toLane="0" tl="joinedS_2098206022_2098206029_2098206039_254842494_#1more" linkIndex="22"/>
    <connection from="-560395151#0" to="164272030#0" fromLane="0" toLane="0" tl="joinedS_10271132830_1759258972_1759258989_1759259000_#2more" linkIndex="9"/>
    <connection from="-560395151#0" to="-296087333#5" fromLane="0" toLane="0" tl="joinedS_10271132830_1759258972_1759258989_1759259000_#2more" linkIndex="10"/>
    <connection from="-560395151#0" to="-164272028#6" fromLane="0" toLane="0" tl="joinedS_10271132830_1759258972_1759258989_1759259000_#2more" linkIndex="11"/>
    <connection from="-560395151#0" to="560395151#0" fromLane="0" toLane="0" tl="joinedS_10271132830_1759258972_1759258989_1759259000_#2more" linkIndex="12"/>
    <connection from="-560395151#2" to="-560395151#0" fromLane="0" toLane="0" tl="joinedS_10271132830_1759258972_1759258989_1759259000_#2more" linkIndex="3"/>
    <connection from="-560395151#5" to="-560395151#4" fromLane="0" toLane="0" tl="5522504811" linkIndex="0"/>
    <connection from="-57833709#0" to="-297349616#2" fromLane="0" toLane="0" tl="321877751" linkIndex="12"/>
    <connection from="-57833709#0" to="-297349615#7" fromLane="0" toLane="0" tl="321877751" linkIndex="13"/>
    <connection from="-57833709#0" to="297349613#0" fromLane="0" toLane="0" tl="321877751" linkIndex="14"/>
    <connection from="-57833709#0" to="57833709#0" fromLane="0" toLane="0" tl="321877751" linkIndex="15"/>
    <connection from="-586972812#5" to="628144492#1" fromLane="0" toLane="0" tl="joinedS_2098206022_2098206029_2098206039_254842494_#1more" linkIndex="50"/>
    <connection from="-586972812#5" to="-586972812#4" fromLane="0" toLane="0" tl="joinedS_2098206022_2098206029_2098206039_254842494_#1more" linkIndex="51"/>
    <connection from="-586972812#5" to="-628144492#0" fromLane="0" toLane="0" tl="joinedS_2098206022_2098206029_2098206039_254842494_#1more" linkIndex="52"/>
    <connection from="-586972812#5" to="586972812#5" fromLane="0" toLane="0" tl="joinedS_2098206022_2098206029_2098206039_254842494_#1more" linkIndex="53"/>
    <connection from="-628144492#1" to="-586972812#4" fromLane="0" toLane="0" tl="joinedS_2098206022_2098206029_2098206039_254842494_#1more" linkIndex="47"/>
    <connection from="-628144492#1" to="-628144492#0" fromLane="0" toLane="0" tl="joinedS_2098206022_2098206029_2098206039_254842494_#1more" linkIndex="48"/>
    <connection from="-628144492#1" to="586972812#5" fromLane="0" toLane="0" tl="joinedS_2098206022_2098206029_2098206039_254842494_#1more" linkIndex="49"/>
    <connection from="-682386390" to="-628144492#1" fromLane="0" toLane="0" tl="joinedS_2098206022_2098206029_2098206039_254842494_#1more" linkIndex="37"/>
    <connection from="-682386390" to="199822892#0" fromLane="0" toLane="0" tl="joinedS_2098206022_2098206029_2098206039_254842494_#1more" linkIndex="38"/>
    <connection from="-682386390" to="682386390" fromLane="0" toLane="0" tl="joinedS_2098206022_2098206029_2098206039_254842494_#1more" linkIndex="39"/>
    <connection from="-710871898#0" to="47358647#0" fromLane="0" toLane="0" tl="joinedS_10269289715_276080655_7289262978_7289280594_#2more" linkIndex="2"/>
    <connection from="-710871898#0" to="-286595747#2" fromLane="0" toLane="0" tl="joinedS_10269289715_276080655_7289262978_7289280594_#2more" linkIndex="3"/>
    <connection from="-710871898#0" to="-297704256#4" fromLane="0" toLane="0" tl="joinedS_10269289715_276080655_7289262978_7289280594_#2more" linkIndex="4"/>
    <connection from="-710871898#0" to="710871898#0" fromLane="0" toLane="0" tl="joinedS_10269289715_276080655_7289262978_7289280594_#2more" linkIndex="5"/>
    <connection from="-710871898#1" to="-710871898#0" fromLane="0" toLane="0" tl="joinedS_10269289715_276080655_7289262978_7289280594_#2more" linkIndex="23"/>
    <connection from="-710871898#4" to="-710871898#3" fromLane="0" toLane="0" tl="5527795799" linkIndex="0"/>
    <connection from="1008296838#2" to="1307929468" fromLane="0" toLane="0" tl="5522747354" linkIndex="1"/>
    <connection from="1008296839#2" to="1008296839#3" fromLane="0" toLane="0" tl="5522747356" linkIndex="0"/>
    <connection from="1104058773#1" to="-286595754#2" fromLane="0" toLane="0" tl="2902746967" linkIndex="7"/>
    <connection from="1104058773#1" to="49247621#1" fromLane="0" toLane="0" tl="2902746967" linkIndex="8"/>
    <connection from="1104058773#1" to="286595754#3" fromLane="0" toLane="0" tl="2902746967" linkIndex="9"/>
    <connection from="1104058773#1" to="-49247621#0" fromLane="0" toLane="0" tl="2902746967" linkIndex="10"/>
    <connection from="1207486477#1" to="1207486477#2" fromLane="0" toLane="0" tl="5522754885" linkIndex="0"/>
    <connection from="1209786785#0" to="1209786785#1" fromLane="0" toLane="0" tl="5522504812" linkIndex="1"/>
    <connection from="1307929464#3" to="1307929465#0" fromLane="0" toLane="0" tl="5527778074" linkIndex="0"/>
    <connection from="1307929465#1" to="144875556#0" fromLane="0" toLane="0" tl="5522753789" linkIndex="0"/>
    <connection from="1307929469" to="519902513#0" fromLane="0" toLane="0" tl="5522747355" linkIndex="1"/>
    <connection from="144875540#0" to="144875540#1" fromLane="0" toLane="0" tl="5522504508" linkIndex="0"/>
    <connection from="144875556#18" to="144875556#19" fromLane="0" toLane="0" tl="joinedS_10271132830_1759258972_1759258989_1759259000_#2more" linkIndex="0"/>
    <connection from="144875556#7" to="144875556#8" fromLane="0" toLane="0" tl="5522501101" linkIndex="0"/>
    <connection from="144875556#9" to="144875556#10" fromLane="0" toLane="0" tl="5586192851" linkIndex="0"/>
    <connection from="144875574#4" to="144875574#5" fromLane="0" toLane="0" tl="5714953827" linkIndex="0"/>
    <connection from="144875577#0" to="144875577#1" fromLane="0" toLane="0" tl="5536149703" linkIndex="0"/>
    <connection from="144912048#6" to="144912048#7" fromLane="0" toLane="0" tl="5714991841" linkIndex="0"/>
    <connection from="164272028#1" to="164272028#4" fromLane="0" toLane="0" tl="joinedS_10271132830_1759258972_1759258989_1759259000_#2more" linkIndex="5"/>
    <connection from="164272028#6" to="560395151#0" fromLane="0" toLane="0" tl="joinedS_10271132830_1759258972_1759258989_1759259000_#2more" linkIndex="13"/>
    <connection from="164272028#6" to="164272030#0" fromLane="0" toLane="0" tl="joinedS_10271132830_1759258972_1759258989_1759259000_#2more" linkIndex="14"/>
    <connection from="164272028#6" to="-296087333#5" fromLane="0" toLane="0" tl="joinedS_10271132830_1759258972_1759258989_1759259000_#2more" linkIndex="15"/>
    <connection from="164272028#6" to="-164272028#6" fromLane="0" toLane="0" tl="joinedS_10271132830_1759258972_1759258989_1759259000_#2more" linkIndex="16"/>
    <connection from="164272030#1" to="164272030#2" fromLane="0" toLane="0" tl="joinedS_10271132830_1759258972_1759258989_1759259000_#2more" linkIndex="7"/>
    <connection from="172181116#5" to="172181116#6" fromLane="0" toLane="0" tl="12110800519" linkIndex="0"/>
    <connection from="199822887" to="555483744#2" fromLane="0" toLane="0" tl="joinedS_2098206022_2098206029_2098206039_254842494_#1more" linkIndex="27"/>
    <connection from="199822887" to="199822898" fromLane="0" toLane="0" tl="joinedS_2098206022_2098206029_2098206039_254842494_#1more" linkIndex="28"/>
    <connection from="199822887" to="199822898" fromLane="1" toLane="1" tl="joinedS_2098206022_2098206029_2098206039_254842494_#1more" linkIndex="29"/>
    <connection from="199822887" to="-555483744#1" fromLane="1" toLane="0" tl="joinedS_2098206022_2098206029_2098206039_254842494_#1more" linkIndex="30"/>
    <connection from="199822890" to="555483744#2" fromLane="0" toLane="0" tl="joinedS_2098206022_2098206029_2098206039_254842494_#1more" linkIndex="23"/>
    <connection from="199822890" to="199822898" fromLane="0" toLane="0" tl="joinedS_2098206022_2098206029_2098206039_254842494_#1more" linkIndex="24"/>
    <connection from="199822890" to="199822898" fromLane="1" toLane="1" tl="joinedS_2098206022_2098206029_2098206039_254842494_#1more" linkIndex="25"/>
    <connection from="199822890" to="-555483744#1" fromLane="1" toLane="0" tl="joinedS_2098206022_2098206029_2098206039_254842494_#1more" linkIndex="26"/>
    <connection from="199822896" to="192721829#0" fromLane="0" toLane="0" tl="joinedS_2098206022_2098206029_2098206039_254842494_#1more" linkIndex="3"/>
    <connection from="199822896" to="199822887" fromLane="0" toLane="0" tl="joinedS_2098206022_2098206029_2098206039_254842494_#1more" linkIndex="4"/>
    <connection from="199822896" to="199822887" fromLane="0" toLane="1" tl="joinedS_2098206022_2098206029_2098206039_254842494_#1more" linkIndex="5"/>
    <connection from="199822896" to="-682386390" fromLane="0" toLane="0" tl="joinedS_2098206022_2098206029_2098206039_254842494_#1more" linkIndex="6"/>
    <connection from="199822897#0" to="-555483744#0" fromLane="0" toLane="0" tl="joinedS_2098206022_2098206029_2098206039_254842494_#1more" linkIndex="10"/>
    <connection from="199822897#0" to="199822897#1" fromLane="0" toLane="0" tl="joinedS_2098206022_2098206029_2098206039_254842494_#1more" linkIndex="11"/>
    <connection from="199822897#0" to="199822897#1" fromLane="1" toLane="1" tl="joinedS_2098206022_2098206029_2098206039_254842494_#1more" linkIndex="12"/>
    <connection from="199822897#0" to="555483744#1" fromLane="1" toLane="0" tl="joinedS_2098206022_2098206029_2098206039_254842494_#1more" linkIndex="13"/>
    <connection from="199822897#1" to="-628144492#1" fromLane="0" toLane="0" tl="joinedS_2098206022_2098206029_2098206039_254842494_#1more" linkIndex="34"/>
    <connection from="199822897#1" to="199822892#0" fromLane="0" toLane="0" tl="joinedS_2098206022_2098206029_2098206039_254842494_#1more" linkIndex="35"/>
    <connection from="199822897#1" to="682386390" fromLane="1" toLane="0" tl="joinedS_2098206022_2098206029_2098206039_254842494_#1more" linkIndex="36"/>
    <connection from="25329887#1" to="25329887#3" fromLane="0" toLane="0" tl="1759259021" linkIndex="1"/>
    <connection from="27510758#7" to="27510758#8" fromLane="0" toLane="0" tl="12110754038" linkIndex="1"/>
    <connection from="27510758#9" to="27510758#10" fromLane="0" toLane="0" tl="5522505604" linkIndex="1"/>
    <connection from="286595747#1" to="286595747#2" fromLane="0" toLane="0" tl="joinedS_10269289715_276080655_7289262978_7289280594_#2more" linkIndex="22"/>
    <connection from="286595747#2" to="-297704256#4" fromLane="0" toLane="0" tl="joinedS_10269289715_276080655_7289262978_7289280594_#2more" linkIndex="10"/>
    <connection from="286595747#2" to="710871898#0" fromLane="0" toLane="0" tl="joinedS_10269289715_276080655_7289262978_7289280594_#2more" linkIndex="11"/>
    <connection from="286595747#2" to="47358647#0" fromLane="0" toLane="0" tl="joinedS_10269289715_276080655_7289262978_7289280594_#2more" linkIndex="12"/>
    <connection from="286595747#2" to="-286595747#2" fromLane="0" toLane="0" tl="joinedS_10269289715_276080655_7289262978_7289280594_#2more" linkIndex="13"/>