<edges xmlns:xsi="http://www.w3.org/2001/XMLSchema-instance" version="1.20" xsi:noNamespaceSchemaLocation="http://sumo.dlr.de/xsd/edges_file.xsd">
    <location netOffset="-419954.28,-5405283.54" convBoundary="0.00,0.00,10241.45,5252.70" origBoundary="1.876621,48.796100,2.067132,48.843109" projParameter="+proj=utm +zone=31 +ellps=WGS84 +datum=WGS84 +units=m +no_defs" />

    <edge id="-100100940" from="8364857961" to="1027206281" priority="3" type="highway.residential" numLanes="1" speed="13.89" shape="5737.12,3638.95 5731.89,3639.38 5720.77,3645.41 5713.63,3645.49" disallow="tram rail_urban rail rail_electric rail_fast ship container cable_car subway aircraft wheelchair scooter drone" />
    <edge id="-100100951#0" from="1157123407" to="1157123425" priority="3" type="highway.residential" numLanes="1" speed="13.89" disallow="tram rail_urban rail rail_electric rail_fast ship container cable_car subway aircraft wheelchair scooter drone" />
    <edge id="-100100951#1" from="1157123431" to="1157123407" priority="3" type="highway.residential" numLanes="1" speed="13.89" disallow="tram rail_urban rail rail_electric rail_fast ship container cable_car subway aircraft wheelchair scooter drone" />
    <edge id="-100100951#2" from="1157123450" to="1157123431" priority="3" type="highway.residential" numLanes="1" speed="13.89" disallow="tram rail_urban rail rail_electric rail_fast ship container cable_car subway aircraft wheelchair scooter drone" />
    <edge id="-100100951#3" from="1157123415" to="1157123450" priority="3" type="highway.residential" numLanes="1" speed="13.89" disallow="tram rail_urban rail rail_electric rail_fast ship container cable_car subway aircraft wheelchair scooter drone" />
    <edge id="-100100951#4" from="1157123432" to="1157123415" priority="3" type="highway.residential" numLanes="1" speed="13.89" shape="5951.02,3300.01 5955.52,3303.07 5978.39,3325.96 5999.86,3348.13" disallow="tram rail_urban rail rail_electric rail_fast ship container cable_car subway aircraft wheelchair scooter drone" />
    <edge id="-100100952#0" from="7389666311" to="1157123442" priority="3" type="highway.residential" numLanes="1" speed="8.33" disallow="tram rail_urban rail rail_electric rail_fast ship container cable_car subway aircraft wheelchair scooter drone" />
    <edge id="-100100952#1" from="7728712744" to="7389666311" priority="3" type="highway.residential" numLanes="1" speed="8.33" shape="6181.49,3613.57 6130.08,3589.90 6072.67,3563.72" disallow="tram rail_urban rail rail_electric rail_fast ship container cable_car subway aircraft wheelchair scooter drone" />
    <edge id="-100100952#2" from="5696677721" to="7728712744" priority="3" type="highway.residential" numLanes="1" speed="8.33" disallow="tram rail_urban rail rail_electric rail_fast ship container cable_car subway aircraft wheelchair scooter drone" />
    <edge id="-100100952#3" from="1157134768" to="5696677721" priority="3" type="highway.residential" numLanes="1" speed="8.33" shape="6228.72,3634.85 6216.39,3632.27 6192.48,3619.46" disallow="tram rail_urban rail rail_electric rail_fast ship container cable_car subway aircraft wheelchair scooter drone" />
    <edge id="-100100953#0" from="1157123410" to="1157123450" priority="3" type="highway.residential" numLanes="1" speed="13.89" disallow="tram rail_urban rail rail_electric rail_fast ship container cable_car subway aircraft wheelchair scooter drone" />
    <edge id="-100100953#1" from="1157123431" to="1157123410" priority="3" type="highway.residential" numLanes="1" speed="13.89" shape="6051.72,3404.07 6007.93,3445.51 6001.35,3446.14 5960.14,3417.25 5959.71,3411.94" disallow="tram rail_urban rail rail_electric rail_fast ship container cable_car subway aircraft wheelchair scooter drone" />
    <edge id="-100101558#0" from="1027206246" to="1027206437" priority="3" type="highway.residential" numLanes="1" speed="13.89" shape="5694.26,3926.39 5749.10,3888.67 5766.46,3879.27" disallow="tram rail_urban rail rail_electric rail_fast ship container cable_car subway aircraft wheelchair scooter drone" />
    <edge id="-100101558#1" from="9212776338" to="1027206246" priority="3" type="highway.residential" numLanes="1" speed="13.89" disallow="tram rail_urban rail rail_electric rail_fast ship container cable_car subway aircraft wheelchair scooter drone" />
    <edge id="-100101558#2" from="1027206408" to="9212776338" priority="3" type="highway.residential" numLanes="1" speed="13.89" disallow="tram rail_urban rail rail_electric rail_fast ship container cable_car subway aircraft wheelchair scooter drone" />
    <edge id="-100101558#3" from="1027206346" to="1027206408" priority="3" type="highway.residential" numLanes="1" speed="13.89" disallow="tram rail_urban rail rail_electric rail_fast ship container cable_car subway aircraft wheelchair scooter drone" />
    <edge id="-100101558#4" from="11314513572" to="1027206346" priority="3" type="highway.residential" numLanes="1" speed="13.89" disallow="tram rail_urban rail rail_electric rail_fast ship container cable_car subway aircraft wheelchair scooter drone" />
    <edge id="-100101558#5" from="1027206109" to="11314513572" priority="3" type="highway.residential" numLanes="1" speed="13.89" shape="5456.79,4088.09 5468.19,4081.58 5531.89,4038.12" disallow="tram rail_urban rail rail_electric rail_fast ship container cable_car subway aircraft wheelchair scooter drone" />
    <edge id="-100101559#0" from="11406353354" to="1027206437" priority="3" type="highway.residential" numLanes="1" speed="13.89" disallow="tram rail_urban rail rail_electric rail_fast ship container cable_car subway aircraft wheelchair scooter drone" />
    <edge id="-100101559#1" from="1027206224" to="11406353354" priority="3" type="highway.residential" numLanes="1" speed="13.89" disallow="tram rail_urban rail rail_electric rail_fast ship container cable_car subway aircraft wheelchair scooter drone" />
    <edge id="-100101561" from="1157123416" to="1157123403" priority="3" type="highway.residential" numLanes="1" speed="13.89" disallow="tram rail_urban rail rail_electric rail_fast ship container cable_car subway aircraft wheelchair scooter drone" />
    <edge id="-100101562" from="1157123409" to="1027206438" priority="3" type="highway.residential" numLanes="1" speed="13.89" shape="5630.65,3716.84 5612.68,3766.36 5611.14,3770.59" disallow="tram rail_urban rail rail_electric rail_fast ship container cable_car subway aircraft wheelchair scooter drone" />
    <edge id="-100101563" from="1027215255" to="4867754425" priority="3" type="highway.residential" numLanes="1" speed="13.89" shape="6353.29,3190.34 6220.03,3304.67 6215.74,3309.95" disallow="tram rail_urban rail rail_electric rail_fast ship container cable_car subway aircraft wheelchair scooter drone" />
    <edge id="-100101564" from="1027206388" to="1027206109" priority="10" type="highway.tertiary" numLanes="1" speed="22.22" shape="5451.37,3768.19 5451.58,3778.78 5452.24,3794.11 5450.87,3891.18 5450.17,3954.11 5456.79,4088.09" disallow="tram rail_urban rail rail_electric rail_fast ship container cable_car subway aircraft wheelchair scooter drone" />
    <edge id="-100101655" from="1155350260" to="8364857945" priority="3" type="highway.residential" numLanes="1" speed="13.89" shape="5769.10,3540.23 5774.18,3541.31 5782.13,3543.73" disallow="tram rail_urban rail rail_electric rail_fast ship container cable_car subway aircraft wheelchair scooter drone" />
    <edge id="-100103248#0" from="1027215246" to="1157163745" priority="3" type="highway.residential" numLanes="1" speed="13.89" shape="6515.94,3393.95 6527.60,3399.10 6533.96,3404.87" disallow="tram rail_urban rail rail_electric rail_fast ship container cable_car subway aircraft wheelchair scooter drone" />
    <edge id="-100103248#1" from="11003283297" to="1027215246" priority="3" type="highway.residential" numLanes="1" speed="13.89" disallow="tram rail_urban rail rail_electric rail_fast ship container cable_car subway aircraft wheelchair scooter drone" />
    <edge id="-100103248#2" from="1027215220" to="11003283297" priority="3" type="highway.residential" numLanes="1" speed="13.89" disallow="tram rail_urban rail rail_electric rail_fast ship container cable_car subway aircraft wheelchair scooter drone" />
    <edge id="-100103248#3" from="1027215201" to="1027215220" priority="3" type="highway.residential" numLanes="1" speed="13.89" disallow="tram rail_urban rail rail_electric rail_fast ship container cable_car subway aircraft wheelchair scooter drone" />
    <edge id="-100103248#4" from="1027215276" to="1027215201" priority="3" type="highway.residential" numLanes="1" speed="13.89" shape="6296.01,3340.50 6314.83,3345.04 6353.07,3354.27 6372.47,3358.95 6395.96,3364.62" disallow="tram rail_urban rail rail_electric rail_fast ship container cable_car subway aircraft wheelchair scooter drone" />
    <edge id="-100119051#0" from="492219048" to="1027206097" priority="3" type="highway.residential" numLanes="1" speed="13.89" shape="6302.30,3927.30 6290.68,3927.34 6246.42,3927.51" disallow="tram rail_urban rail rail_electric rail_fast ship container cable_car subway aircraft wheelchair scooter drone" />
    <edge id="-100119051#1" from="492219038" to="492219048" priority="3" type="highway.residential" numLanes="1" speed="13.89" disallow="tram rail_urban rail rail_electric rail_fast ship container cable_car subway aircraft wheelchair scooter drone" />
    <edge id="-100119051#2" from="7731227910" to="492219038" priority="3" type="highway.residential" numLanes="1" speed="13.89" disallow="tram rail_urban rail rail_electric rail_fast ship container cable_car subway aircraft wheelchair scooter drone" />
    <edge id="-100119051#3" from="1027206412" to="7731227910" priority="3" type="highway.residential" numLanes="1" speed="13.89" disallow="tram rail_urban rail rail_electric rail_fast ship container cable_car subway aircraft wheelchair scooter drone" />
    <edge id="-100119051#4" from="1027206348" to="1027206412" priority="3" type="highway.residential" numLanes="1" speed="13.89" disallow="tram rail_urban rail rail_electric rail_fast ship container cable_car subway aircraft wheelchair scooter drone" />
    <edge id="-100123081#0" from="1157429101" to="1157429132" priority="3" type="highway.residential" numLanes="1" speed="13.89" shape="6057.69,3720.29 6080.60,3769.37 6081.14,3772.57" disallow="tram rail_urban rail rail_electric rail_fast ship container cable_car subway aircraft wheelchair scooter drone" />
    <edge id="-100123081#1" from="1157429117" to="1157429101" priority="3" type="highway.residential" numLanes="1" speed="13.89" shape="6060.22,3638.35 6026.87,3655.44 6057.69,3720.29" disallow="tram rail_urban rail rail_electric rail_fast ship container cable_car subway aircraft wheelchair scooter drone" />
    <edge id="-100123081#2" from="12542562902" to="1157429117" priority="3" type="highway.residential" numLanes="1" speed="13.89" shape="6056.66,3598.81 6043.73,3605.74 6060.22,3638.35" disallow="tram rail_urban rail rail_electric rail_fast ship container cable_car subway aircraft wheelchair scooter drone" />
    <edge id="-100123081#3" from="12542521396" to="12542562902" priority="3" type="highway.residential" numLanes="1" speed="13.89" shape="6077.20,3590.66 6074.02,3592.23 6065.69,3593.97 6056.66,3598.81" disallow="tram rail_urban rail rail_electric rail_fast ship container cable_car subway aircraft wheelchair scooter drone" />
    <edge id="-100123081#4" from="12470875299" to="12542521396" priority="3" type="highway.residential" numLanes="1" speed="13.89" shape="6082.03,3587.29 6081.07,3588.74 6077.20,3590.66" disallow="tram rail_urban rail rail_electric rail_fast ship container cable_car subway aircraft wheelchair scooter drone" />
    <edge id="-100123081#5" from="1157429103" to="12470875299" priority="3" type="highway.residential" numLanes="1" speed="13.89" disallow="tram rail_urban rail rail_electric rail_fast ship container cable_car subway aircraft wheelchair scooter drone" />
    <edge id="-100123082#0" from="1157467126" to="1157429101" priority="3" type="highway.residential" numLanes="1" speed="13.89" disallow="tram rail_urban rail rail_electric rail_fast ship container cable_car subway aircraft wheelchair scooter drone" />
    <edge id="-100123082#1" from="1157429127" to="1157467126" priority="3" type="highway.residential" numLanes="1" speed="13.89" disallow="tram rail_urban rail rail_electric rail_fast ship container cable_car subway aircraft wheelchair scooter drone" />
    <edge id="-100126496" from="1157441726" to="1157441689" priority="3" type="highway.residential" numLanes="1" speed="13.89" disallow="tram rail_urban rail rail_electric rail_fast ship container cable_car subway aircraft wheelchair scooter drone" />
    <edge id="-100126501" from="1157441673" to="1157441703" priority="3" type="highway.residential" numLanes="1" speed="13.89" disallow="tram rail_urban rail rail_electric rail_fast ship container cable_car subway aircraft wheelchair scooter drone" />
    <edge id="-100126502#0" from="1157441689" to="1157441673" priority="3" type="highway.residential" numLanes="1" speed="13.89" disallow="tram rail_urban rail rail_electric rail_fast ship container cable_car subway aircraft wheelchair scooter drone" />
    <edge id="-100126502#1" from="1157441695" to="1157441689" priority="3" type="highway.residential" numLanes="1" speed="13.89" shape="6170.50,3179.52 6169.17,3183.17 6148.19,3201.09" disallow="tram rail_urban rail rail_electric rail_fast ship container cable_car subway aircraft wheelchair scooter drone" />
    <edge id="-100126502#2" from="1157441732" to="1157441695" priority="3" type="highway.residential" numLanes="1" speed="13.89" disallow="tram rail_urban rail rail_electric rail_fast ship container cable_car subway aircraft wheelchair scooter drone" />
    <edge id="-100126502#3" from="1157441733" to="1157441732" priority="3" type="highway.residential" numLanes="1" speed="13.89" shape="6218.76,3091.80 6250.80,3109.93 6192.20,3160.71" disallow="tram rail_urban rail rail_electric rail_fast ship container cable_car subway aircraft wheelchair scooter drone" />
    <edge id="-100126502#4" from="1157441746" to="1157441733" priority="3" type="highway.residential" numLanes="1" speed="13.89" shape="6198.64,3074.20 6208.57,3066.02 6224.81,3087.31 6218.76,3091.80" disallow="tram rail_urban rail rail_electric rail_fast ship container cable_car subway aircraft wheelchair scooter drone" />
    <edge id="-100126502#5" from="1157441733" to="1157441746" priority="3" type="highway.residential" numLanes="1" speed="13.89" shape="6218.76,3091.80 6214.57,3094.70 6198.64,3074.20" disallow="tram rail_urban rail rail_electric rail_fast ship container cable_car subway aircraft wheelchair scooter drone" />
    <edge id="-100126507" from="1157441744" to="1157441732" priority="3" type="highway.residential" numLanes="1" speed="13.89" disallow="tram rail_urban rail rail_electric rail_fast ship container cable_car subway aircraft wheelchair scooter drone" />
    <edge id="-100126511" from="10224064730" to="1027215203" priority="2" type="highway.living_street" numLanes="1" speed="5.56" shape="6126.35,3117.98 6150.23,3092.30 6155.10,3087.05 6156.60,3084.72 6157.74,3081.17 6158.38,3077.32" disallow="tram rail_urban rail rail_electric rail_fast ship container cable_car subway aircraft wheelchair scooter drone" />
    <edge id="-100132093#0" from="1027206438" to="1027206372" priority="10" type="highway.tertiary" numLanes="1" speed="22.22" disallow="tram rail_urban rail rail_electric rail_fast ship container cable_car subway aircraft wheelchair scooter drone" />
    <edge id="-100132093#1" from="1027206267" to="1027206438" priority="10" type="highway.tertiary" numLanes="1" speed="22.22" disallow="tram rail_urban rail rail_electric rail_fast ship container cable_car subway aircraft wheelchair scooter drone" />
    <edge id="-100132093#2" from="1027206388" to="1027206267" priority="10" type="highway.tertiary" numLanes="1" speed="22.22" shape="5451.37,3768.19 5469.25,3770.52 5531.00,3769.39" disallow="tram rail_urban rail rail_electric rail_fast ship container cable_car subway aircraft wheelchair scooter drone" />
    <edge id="-100132095#0" from="12465770274" to="12568931862" priority="10" type="highway.tertiary" numLanes="1" speed="22.22" disallow="tram rail_urban rail rail_electric rail_fast ship container cable_car subway aircraft wheelchair scooter drone" />
    <edge id="-100132095#1" from="12302113338" to="12465770274" priority="10" type="highway.tertiary" numLanes="1" speed="22.22" disallow="tram rail_urban rail rail_electric rail_fast ship container cable_car subway aircraft wheelchair scooter drone" />
    <edge id="-100132095#10" from="1027206277" to="1027206153" priority="10" type="highway.tertiary" numLanes="1" speed="22.22" disallow="tram rail_urban rail rail_electric rail_fast ship container cable_car subway aircraft wheelchair scooter drone" />
    <edge id="-100132095#11" from="4867748233" to="1027206277" priority="10" type="highway.tertiary" numLanes="1" speed="22.22" shape="5689.89,3770.28 5693.87,3770.31 5699.23,3770.35 5771.01,3770.72" disallow="tram rail_urban rail rail_electric rail_fast ship container cable_car subway aircraft wheelchair scooter drone" />
    <edge id="-100132095#2" from="2315602732" to="12302113338" priority="10" type="highway.tertiary" numLanes="1" speed="22.22" disallow="tram rail_urban rail rail_electric rail_fast ship container cable_car subway aircraft wheelchair scooter drone" />
    <edge id="-100132095#3" from="3225597425" to="2315602732" priority="10" type="highway.tertiary" numLanes="1" speed="22.22" disallow="tram rail_urban rail rail_electric rail_fast ship container cable_car subway aircraft wheelchair scooter drone" />
    <edge id="-100132095#4" from="1157429132" to="3225597425" priority="10" type="highway.tertiary" numLanes="1" speed="22.22" disallow="tram rail_urban rail rail_electric rail_fast ship container cable_car subway aircraft wheelchair scooter drone" />
    <edge id="-100132095#5" from="7731180419" to="1157429132" priority="10" type="highway.tertiary" numLanes="1" speed="22.22" disallow="tram rail_urban rail rail_electric rail_fast ship container cable_car subway aircraft wheelchair scooter drone" />
    <edge id="-100132095#6" from="7635004696" to="7731180419" priority="10" type="highway.tertiary" numLanes="1" speed="22.22" disallow="tram rail_urban rail rail_electric rail_fast ship container cable_car subway aircraft wheelchair scooter drone" />
    <edge id="-100132095#7" from="7635004697" to="7635004696" priority="10" type="highway.tertiary" numLanes="1" speed="22.22" disallow="tram rail_urban rail rail_electric rail_fast ship container cable_car subway aircraft wheelchair scooter drone" />
    <edge id="-100132095#8" from="1027206101" to="7635004697" priority="10" type="highway.tertiary" numLanes="1" speed="22.22" disallow="tram rail_urban rail rail_electric rail_fast ship container cable_car subway aircraft wheelchair scooter drone" />
    <edge id="-100132095#9" from="1027206153" to="1027206101" priority="10" type="highway.tertiary" numLanes="1" speed="22.22" disallow="tram rail_urban rail rail_electric rail_fast ship container cable_car subway aircraft wheelchair scooter drone" />
    <edge id="-100142544" from="8364857956" to="1157591385" priority="3" type="highway.residential" numLanes="1" speed="13.89" shape="5813.90,3512.39 5815.78,3505.99 5832.45,3485.94 5835.20,3482.95" disallow="tram rail_urban rail rail_electric rail_fast ship container cable_car subway aircraft wheelchair scooter drone" />
    <edge id="-1002022805#2" from="257252793" to="11432799797" priority="10" type="highway.tertiary" numLanes="1" speed="13.89" shape="3163.90,3119.13 3139.46,3121.86 3114.91,3127.96 3111.98,3128.69 3107.51,3129.79" disallow="tram rail_urban rail rail_electric rail_fast ship container cable_car subway aircraft wheelchair scooter drone" />
    <edge id="-1002022806#2" from="257252793" to="564635383" priority="3" type="highway.residential" numLanes="1" speed="13.89" shape="3163.90,3119.13 3161.44,3095.11 3161.10,3091.82 3157.95,3059.11" disallow="tram rail_urban rail rail_electric rail_fast ship container cable_car subway aircraft wheelchair scooter drone" />
    <edge id="-1002022807" from="564635618" to="10885945066" priority="10" type="highway.tertiary" numLanes="1" speed="13.89" disallow="tram rail_urban rail rail_electric rail_fast ship container cable_car subway aircraft wheelchair scooter drone" />
    <edge id="-1002022808#2" from="12346708557" to="257252788" priority="3" type="highway.residential" numLanes="1" speed="13.89" shape="3166.05,3138.94 3166.80,3145.93 3167.11,3148.72 3172.25,3194.84 3178.75,3247.23 3179.05,3249.68 3180.38,3261.07 3184.08,3290.18 3185.82,3308.65 3185.56,3323.35 3182.93,3338.16" disallow="tram rail_urban rail rail_electric rail_fast ship container cable_car subway aircraft wheelchair scooter drone" />
    <edge id="-1002022808#3" from="257252793" to="12346708557" priority="3" type="highway.residential" numLanes="1" speed="13.89" disallow="tram rail_urban rail rail_electric rail_fast ship container cable_car subway aircraft wheelchair scooter drone" />
    <edge id="-1002022809" from="10885945066" to="257252793" priority="10" type="highway.tertiary" numLanes="2" speed="13.89" disallow="tram rail_urban rail rail_electric rail_fast ship container cable_car subway aircraft wheelchair scooter drone" />
    <edge id="-100300038#0" from="1210304129" to="1209575264" priority="2" type="highway.living_street" numLanes="1" speed="2.78" shape="5708.03,2409.98 5710.93,2402.99 5709.55,2394.26" disallow="tram rail_urban rail rail_electric rail_fast ship container cable_car subway aircraft wheelchair scooter drone" />
    <edge id="-100300038#1" from="7497480432" to="1210304129" priority="2" type="highway.living_street" numLanes="1" speed="2.78" disallow="tram rail_urban rail rail_electric rail_fast ship container cable_car subway aircraft wheelchair scooter drone" />
    <edge id="-100300038#2" from="1209575260" to="7497480432" priority="2" type="highway.living_street" numLanes="1" speed="2.78" shape="5685.52,2442.95 5699.71,2432.61 5704.70,2426.27 5705.81,2417.70 5706.30,2416.01" disallow="tram rail_urban rail rail_electric rail_fast ship container cable_car subway aircraft wheelchair scooter drone" />
    <edge id="-100300038#3" from="1250206368" to="1209575260" priority="2" type="highway.living_street" numLanes="1" speed="2.78" shape="5687.90,2477.43 5686.17,2473.88 5680.65,2463.93 5679.18,2456.82 5680.66,2449.44 5685.52,2442.95" disallow="tram rail_urban rail rail_electric rail_fast ship container cable_car subway aircraft wheelchair scooter drone" />
    <edge id="-100300038#4" from="1250206355" to="1250206368" priority="2" type="highway.living_street" numLanes="1" speed="2.78" shape="5688.34,2505.27 5690.66,2493.78 5688.94,2479.84 5687.90,2477.43" disallow="tram rail_urban rail rail_electric rail_fast ship container cable_car subway aircraft wheelchair scooter drone" />
    <edge id="-100300038#5" from="1250206384" to="1250206355" priority="2" type="highway.living_street" numLanes="1" speed="2.78" disallow="tram rail_urban rail rail_electric rail_fast ship container cable_car subway aircraft wheelchair scooter drone" />
    <edge id="-100300038#6" from="1153367706" to="1250206384" priority="2" type="highway.living_street" numLanes="1" speed="2.78" shape="5678.36,2525.94 5684.17,2520.07 5687.55,2509.20" disallow="tram rail_urban rail rail_electric rail_fast ship container cable_car subway aircraft wheelchair scooter drone" />
    <edge id="-100376010" from="2895501680" to="1160279402" priority="3" type="highway.residential" numLanes="1" speed="13.89" disallow="tram rail_urban rail rail_electric rail_fast ship container cable_car subway aircraft wheelchair scooter drone" />
    <edge id="-100376019" from="1160279405" to="1160279402" priority="2" type="highway.living_street" numLanes="1" speed="5.56" shape="5505.11,3678.56 5421.58,3706.90 5414.67,3709.25" disallow="tram rail_urban rail rail_electric rail_fast ship container cable_car subway aircraft wheelchair scooter drone" />
    <edge id="-100380474#0" from="1178915795" to="564655143" priority="3" type="highway.residential" numLanes="1" speed="13.89" shape="5392.47,3623.47 5395.19,3632.33 5399.52,3644.60" disallow="tram rail_urban rail rail_electric rail_fast ship container cable_car subway aircraft wheelchair scooter drone" />
    <edge id="-100380474#1" from="1178915817" to="1178915795" priority="3" type="highway.residential" numLanes="1" speed="13.89" disallow="tram rail_urban rail rail_electric rail_fast ship container cable_car subway aircraft wheelchair scooter drone" />
    <edge id="-100380482#0" from="5730537608" to="1160279413" priority="4" type="highway.unclassified" numLanes="1" speed="13.89" disallow="tram rail_urban rail rail_electric rail_fast ship container cable_car subway aircraft wheelchair scooter drone" />
    <edge id="-100380482#1" from="1160279406" to="5730537608" priority="4" type="highway.unclassified" numLanes="1" speed="13.89" shape="4990.36,3765.22 4988.61,3725.83 4897.77,3730.56 4893.02,3730.01 4890.77,3726.62 4889.41,3685.55" disallow="tram rail_urban rail rail_electric rail_fast ship container cable_car subway aircraft wheelchair scooter drone" />
    <edge id="-100380482#2" from="1160279419" to="1160279406" priority="4" type="highway.unclassified" numLanes="1" speed="13.89" disallow="tram rail_urban rail rail_electric rail_fast ship container cable_car subway aircraft wheelchair scooter drone" />
    <edge id="-102077245#0" from="675753789" to="564657491" priority="2" type="highway.living_street" numLanes="1" speed="2.78" disallow="tram rail_urban rail rail_electric rail_fast ship container cable_car subway aircraft wheelchair scooter drone" />
    <edge id="-102077245#1" from="1673254725" to="675753789" priority="2" type="highway.living_street" numLanes="1" speed="2.78" shape="5811.32,2757.09 5814.74,2770.87 5818.68,2786.76 5824.74,2811.15" disallow="tram rail_urban rail rail_electric rail_fast ship container cable_car subway aircraft wheelchair scooter drone" />
    <edge id="-102077245#2" from="1673254730" to="1673254725" priority="2" type="highway.living_street" numLanes="1" speed="2.78" disallow="tram rail_urban rail rail_electric rail_fast ship container cable_car subway aircraft wheelchair scooter drone" />
    <edge id="-102077245#3" from="564657492" to="1673254730" priority="2" type="highway.living_street" numLanes="1" speed="2.78" disallow="tram rail_urban rail rail_electric rail_fast ship container cable_car subway aircraft wheelchair scooter drone" />
    <edge id="-102077247#0" from="564656657" to="564656655" priority="3" type="highway.residential" numLanes="1" speed="13.89" disallow="tram rail_urban rail rail_electric rail_fast ship container cable_car subway aircraft wheelchair scooter drone" />
    <edge id="-102077247#1" from="10225444781" to="564656657" priority="3" type="highway.residential" numLanes="1" speed="13.89" disallow="tram rail_urban rail rail_electric rail_fast ship container cable_car subway aircraft wheelchair scooter drone" />
    <edge id="-102077247#2" from="1178255977" to="10225444781" priority="3" type="highway.residential" numLanes="1" speed="13.89" disallow="tram rail_urban rail rail_electric rail_fast ship container cable_car subway aircraft wheelchair scooter drone" />
    <edge id="-102077248#0" from="675799917" to="294505667" priority="3" type="highway.residential" numLanes="1" speed="13.89" shape="6497.77,2474.99 6508.13,2470.34 6528.14,2463.46 6539.25,2459.65" disallow="tram rail_urban rail rail_electric rail_fast ship container cable_car subway aircraft wheelchair scooter drone" />
    <edge id="-102077248#1" from="564659028" to="675799917" priority="3" type="highway.residential" numLanes="1" speed="13.89" disallow="tram rail_urban rail rail_electric rail_fast ship container cable_car subway aircraft wheelchair scooter drone" />
    <edge id="-102077248#2" from="675791819" to="564659028" priority="3" type="highway.residential" numLanes="1" speed="13.89" shape="6370.32,2588.12 6419.31,2519.54 6419.98,2514.01" disallow="tram rail_urban rail rail_electric rail_fast ship container cable_car subway aircraft wheelchair scooter drone" />
    <edge id="-102077248#3" from="675790835" to="675791819" priority="3" type="highway.residential" numLanes="1" speed="13.89" disallow="tram rail_urban rail rail_electric rail_fast ship container cable_car subway aircraft wheelchair scooter drone" />
    <edge id="-102077248#4" from="675791045" to="675790835" priority="3" type="highway.residential" numLanes="1" speed="13.89" disallow="tram rail_urban rail rail_electric rail_fast ship container cable_car subway aircraft wheelchair scooter drone" />
    <edge id="-102077248#5" from="675753783" to="675791045" priority="3" type="highway.residential" numLanes="1" speed="13.89" disallow="tram rail_urban rail rail_electric rail_fast ship container cable_car subway aircraft wheelchair scooter drone" />
    <edge id="-102077248#6" from="4867857413" to="675753783" priority="3" type="highway.residential" numLanes="1" speed="13.89" shape="6259.76,2749.07 6268.71,2736.08 6283.97,2714.66" disallow="tram rail_urban rail rail_electric rail_fast ship container cable_car subway aircraft wheelchair scooter drone" />
    <edge id="-102077254#0" from="2491024866" to="564655567" priority="10" type="highway.tertiary" numLanes="1" speed="22.22" shape="5551.23,2989.76 5549.26,2990.53 5537.38,2995.18 5535.60,2995.89" disallow="tram rail_urban rail rail_electric rail_fast ship container cable_car subway aircraft wheelchair scooter drone" />