<edges xmlns:xsi="http://www.w3.org/2001/XMLSchema-instance" version="1.20" xsi:noNamespaceSchemaLocation="http://sumo.dlr.de/xsd/edges_file.xsd">
    <location netOffset="-412398.86,-5396983.68" convBoundary="0.00,0.00,16577.71,9120.13" origBoundary="0.188913,48.585176,2.941998,49.487412" projParameter="+proj=utm +zone=31 +ellps=WGS84 +datum=WGS84 +units=m +no_defs" />

    <edge id="-1000760728" from="2287173681" to="2287173649" priority="3" type="highway.residential" numLanes="1" speed="13.89" shape="8364.79,3394.10 8360.59,3404.23 8340.57,3433.14" disallow="tram rail_urban rail rail_electric rail_fast ship container cable_car subway aircraft wheelchair scooter drone" />
    <edge id="-1004721009" from="1831133399" to="1743362017" priority="11" type="highway.secondary" numLanes="1" speed="8.33" shape="15371.93,1437.40 15388.80,1404.60 15407.07,1374.50 15453.30,1326.79 15502.83,1284.13" disallow="tram rail_urban rail rail_electric rail_fast ship container cable_car subway aircraft wheelchair scooter drone">
        <param key="ref" value="D 46" />
    </edge>
    <edge id="-1004721013#0" from="12615932132" to="1831133299" priority="3" type="highway.residential" numLanes="1" speed="8.33" shape="15421.86,1177.63 15410.91,1182.63 15406.06,1187.27" disallow="tram rail_urban rail rail_electric rail_fast ship container cable_car subway aircraft wheelchair scooter drone" />
    <edge id="-1004721013#1" from="12615932128" to="12615932132" priority="3" type="highway.residential" numLanes="1" speed="8.33" disallow="tram rail_urban rail rail_electric rail_fast ship container cable_car subway aircraft wheelchair scooter drone" />
    <edge id="-1004721013#2" from="1831152173" to="12615932128" priority="3" type="highway.residential" numLanes="1" speed="8.33" disallow="tram rail_urban rail rail_electric rail_fast ship container cable_car subway aircraft wheelchair scooter drone" />
    <edge id="-103110828#0" from="3522354391" to="1190736410" priority="3" type="highway.residential" numLanes="1" speed="13.89" shape="10426.72,4739.43 10428.87,4736.73 10430.52,4724.31" disallow="tram rail_urban rail rail_electric rail_fast ship container cable_car subway aircraft wheelchair scooter drone" />
    <edge id="-103110828#1" from="3522354793" to="3522354391" priority="3" type="highway.residential" numLanes="1" speed="13.89" shape="10409.76,4752.04 10424.80,4741.85 10426.72,4739.43" disallow="tram rail_urban rail rail_electric rail_fast ship container cable_car subway aircraft wheelchair scooter drone" />
    <edge id="-103110828#2" from="1190736024" to="3522354793" priority="3" type="highway.residential" numLanes="1" speed="13.89" disallow="tram rail_urban rail rail_electric rail_fast ship container cable_car subway aircraft wheelchair scooter drone" />
    <edge id="-104179619" from="1202112097" to="1202112048" priority="3" type="highway.residential" numLanes="1" speed="13.89" disallow="tram rail_urban rail rail_electric rail_fast ship container cable_car subway aircraft wheelchair scooter drone" />
    <edge id="-1051361442#0" from="9661556803" to="9661556802" priority="4" type="highway.unclassified" numLanes="1" speed="13.89" disallow="tram rail_urban rail rail_electric rail_fast ship container cable_car subway aircraft wheelchair scooter drone" />
    <edge id="-1051361442#1" from="9661556804" to="9661556803" priority="4" type="highway.unclassified" numLanes="1" speed="13.89" disallow="tram rail_urban rail rail_electric rail_fast ship container cable_car subway aircraft wheelchair scooter drone" />
    <edge id="-1051361443" from="9661556809" to="9661556804" priority="4" type="highway.unclassified" numLanes="1" speed="13.89" shape="9992.76,4956.27 9975.49,4928.36 9973.36,4925.11 9966.89,4921.62 9959.10,4920.09 9953.42,4920.62" disallow="tram rail_urban rail rail_electric rail_fast ship container cable_car subway aircraft wheelchair scooter drone" />
    <edge id="-1053298897#0" from="885353231" to="1831133183" priority="11" type="highway.secondary" numLanes="1" speed="13.89" shape="14297.84,818.14 14296.89,805.27 14288.91,696.35" disallow="tram rail_urban rail rail_electric rail_fast ship container cable_car subway aircraft wheelchair scooter drone">
        <param key="ref" value="D 91" />
    </edge>
    <edge id="-1053298897#1" from="1831133186" to="885353231" priority="11" type="highway.secondary" numLanes="1" speed="13.89" disallow="tram rail_urban rail rail_electric rail_fast ship container cable_car subway aircraft wheelchair scooter drone">
        <param key="ref" value="D 91" />
    </edge>
    <edge id="-1063257585" from="1907498563" to="9767039665" priority="4" type="highway.unclassified" numLanes="1" speed="13.89" shape="13293.51,4032.50 13286.78,4029.68 13284.58,4028.90 13281.12,4028.07 13249.20,4023.32 13238.40,4021.70" disallow="tram rail_urban rail rail_electric rail_fast ship container cable_car subway aircraft wheelchair scooter drone" />
    <edge id="-1063322158" from="1907498596" to="1907498715" priority="4" type="highway.unclassified" numLanes="1" speed="13.89" shape="13416.72,4118.82 13426.85,4109.81 13432.91,4104.30" disallow="tram rail_urban rail rail_electric rail_fast ship container cable_car subway aircraft wheelchair scooter drone" />
    <edge id="-1063322159" from="1907498625" to="1907498596" priority="4" type="highway.unclassified" numLanes="1" speed="13.89" disallow="tram rail_urban rail rail_electric rail_fast ship container cable_car subway aircraft wheelchair scooter drone" />
    <edge id="-106491235" from="1225076995" to="1225076957" priority="3" type="highway.residential" numLanes="1" speed="13.89" shape="13844.16,6547.78 13839.51,6544.55 13826.59,6519.77 13826.34,6506.68 13806.39,6474.16" disallow="tram rail_urban rail rail_electric rail_fast ship container cable_car subway aircraft wheelchair scooter drone" />
    <edge id="-1065949638" from="259826553" to="1255234640" priority="10" type="highway.tertiary" numLanes="1" speed="13.89" disallow="tram rail_urban rail rail_electric rail_fast ship container cable_car subway aircraft wheelchair scooter drone">
        <param key="ref" value="D 58" />
    </edge>
    <edge id="-1065960026#0" from="10125303683" to="1746690976" priority="3" type="highway.residential" numLanes="1" speed="13.89" disallow="tram rail_urban rail rail_electric rail_fast ship container cable_car subway aircraft wheelchair scooter drone" />
    <edge id="-1065960026#1" from="292956134" to="10125303683" priority="3" type="highway.residential" numLanes="1" speed="13.89" shape="7618.19,1989.14 7630.28,2004.08 7657.23,2037.58 7668.50,2054.28" disallow="tram rail_urban rail rail_electric rail_fast ship container cable_car subway aircraft wheelchair scooter drone" />
    <edge id="-1065960027#0" from="10125303675" to="292956138" priority="4" type="highway.unclassified" numLanes="1" speed="13.89" shape="7382.24,1851.94 7378.56,1850.73 7375.06,1848.84" disallow="tram rail_urban rail rail_electric rail_fast ship container cable_car subway aircraft wheelchair scooter drone" />
    <edge id="-1065960027#1" from="1754679423" to="10125303675" priority="4" type="highway.unclassified" numLanes="1" speed="13.89" shape="7408.34,1851.90 7400.30,1851.55 7387.95,1852.46 7382.24,1851.94" disallow="tram rail_urban rail rail_electric rail_fast ship container cable_car subway aircraft wheelchair scooter drone" />
    <edge id="-1065960028#0" from="1750224260" to="1115017059" priority="3" type="highway.residential" numLanes="1" speed="13.89" disallow="tram rail_urban rail rail_electric rail_fast ship container cable_car subway aircraft wheelchair scooter drone" />
    <edge id="-1065960028#1" from="1746690976" to="1750224260" priority="3" type="highway.residential" numLanes="1" speed="13.89" disallow="tram rail_urban rail rail_electric rail_fast ship container cable_car subway aircraft wheelchair scooter drone" />
    <edge id="-1080382710#0" from="3523278422" to="361407989" priority="10" type="highway.tertiary" numLanes="1" speed="22.22" shape="13879.38,5885.48 13959.11,5925.68 13970.07,5931.34 14015.76,5954.93" disallow="tram rail_urban rail rail_electric rail_fast ship container cable_car subway aircraft wheelchair scooter drone">
        <param key="ref" value="D 23" />
    </edge>
    <edge id="-1080382710#1" from="979885721" to="3523278422" priority="10" type="highway.tertiary" numLanes="1" speed="22.22" disallow="tram rail_urban rail rail_electric rail_fast ship container cable_car subway aircraft wheelchair scooter drone">
        <param key="ref" value="D 23" />
    </edge>
    <edge id="-108148273#0" from="2229496053" to="323911945" priority="3" type="highway.residential" numLanes="1" speed="13.89" shape="10931.22,2186.10 10923.58,2196.94 10913.77,2209.59 10901.65,2220.27 10832.77,2263.60" disallow="tram rail_urban rail rail_electric rail_fast ship container cable_car subway aircraft wheelchair scooter drone" />
    <edge id="-108148273#1" from="2229496045" to="2229496053" priority="3" type="highway.residential" numLanes="1" speed="13.89" shape="10934.48,2157.93 10934.92,2165.22 10932.39,2182.32 10931.22,2186.10" disallow="tram rail_urban rail rail_electric rail_fast ship container cable_car subway aircraft wheelchair scooter drone" />
    <edge id="-108148273#2" from="1241209814" to="2229496045" priority="3" type="highway.residential" numLanes="1" speed="13.89" shape="10897.17,2078.53 10930.10,2134.05 10932.76,2147.51 10934.48,2157.93" disallow="tram rail_urban rail rail_electric rail_fast ship container cable_car subway aircraft wheelchair scooter drone" />
    <edge id="-108148274#0" from="1241209804" to="323911950" priority="3" type="highway.residential" numLanes="1" speed="13.89" disallow="tram rail_urban rail rail_electric rail_fast ship container cable_car subway aircraft wheelchair scooter drone" />
    <edge id="-108148274#1" from="259774742" to="1241209804" priority="3" type="highway.residential" numLanes="1" speed="13.89" shape="10736.20,2373.41 10737.83,2369.54 10743.35,2365.26 10789.85,2336.14" disallow="tram rail_urban rail rail_electric rail_fast ship container cable_car subway aircraft wheelchair scooter drone" />
    <edge id="-108148275" from="1241209804" to="1241209857" priority="3" type="highway.residential" numLanes="1" speed="13.89" shape="10789.85,2336.14 10786.63,2329.30 10781.93,2320.08 10777.29,2312.96 10770.21,2304.93 10763.40,2298.72 10751.74,2287.46 10741.41,2278.41 10730.01,2264.11 10721.79,2248.26 10715.39,2226.61 10715.62,2221.01 10718.25,2215.79 10722.55,2211.20 10769.26,2179.03 10775.50,2175.01" disallow="tram rail_urban rail rail_electric rail_fast ship container cable_car subway aircraft wheelchair scooter drone" />
    <edge id="-108152128" from="745176952" to="745176942" priority="3" type="highway.residential" numLanes="1" speed="13.89" disallow="tram rail_urban rail rail_electric rail_fast ship container cable_car subway aircraft wheelchair scooter drone" />
    <edge id="-1087440455" from="5586740179" to="338317048" priority="11" type="highway.secondary" numLanes="1" speed="27.78" disallow="tram rail_urban rail rail_electric rail_fast ship container cable_car subway aircraft wheelchair scooter drone" />
    <edge id="-1087561817#0" from="979885870" to="315118683" priority="3" type="highway.residential" numLanes="1" speed="13.89" disallow="tram rail_urban rail rail_electric rail_fast ship container cable_car subway aircraft wheelchair scooter drone" />
    <edge id="-1087561817#1" from="10905169556" to="979885870" priority="3" type="highway.residential" numLanes="1" speed="13.89" shape="12905.91,6457.21 12942.67,6456.97 12987.55,6456.08 13028.71,6455.26" disallow="tram rail_urban rail rail_electric rail_fast ship container cable_car subway aircraft wheelchair scooter drone" />
    <edge id="-1087561817#10" from="315118665" to="670246915" priority="3" type="highway.residential" numLanes="1" speed="13.89" shape="12669.70,6614.87 12672.67,6607.47 12677.10,6600.60" disallow="tram rail_urban rail rail_electric rail_fast ship container cable_car subway aircraft wheelchair scooter drone" />
    <edge id="-1087561817#11" from="670246917" to="315118665" priority="3" type="highway.residential" numLanes="1" speed="13.89" disallow="tram rail_urban rail rail_electric rail_fast ship container cable_car subway aircraft wheelchair scooter drone" />
    <edge id="-1087561817#12" from="315118664" to="670246917" priority="3" type="highway.residential" numLanes="1" speed="13.89" disallow="tram rail_urban rail rail_electric rail_fast ship container cable_car subway aircraft wheelchair scooter drone" />
    <edge id="-1087561817#13" from="670246920" to="315118664" priority="3" type="highway.residential" numLanes="1" speed="13.89" disallow="tram rail_urban rail rail_electric rail_fast ship container cable_car subway aircraft wheelchair scooter drone" />
    <edge id="-1087561817#14" from="11944646192" to="670246920" priority="3" type="highway.residential" numLanes="1" speed="13.89" disallow="tram rail_urban rail rail_electric rail_fast ship container cable_car subway aircraft wheelchair scooter drone" />
    <edge id="-1087561817#15" from="315118663" to="11944646192" priority="3" type="highway.residential" numLanes="1" speed="13.89" disallow="tram rail_urban rail rail_electric rail_fast ship container cable_car subway aircraft wheelchair scooter drone" />
    <edge id="-1087561817#2" from="315118680" to="10905169556" priority="3" type="highway.residential" numLanes="1" speed="13.89" shape="12891.03,6456.18 12895.15,6456.65 12902.82,6457.23 12905.91,6457.21" disallow="tram rail_urban rail rail_electric rail_fast ship container cable_car subway aircraft wheelchair scooter drone" />
    <edge id="-1087561817#3" from="315118677" to="315118680" priority="3" type="highway.residential" numLanes="1" speed="13.89" shape="12834.03,6431.81 12848.66,6435.46 12863.29,6442.75 12876.24,6452.65 12891.03,6456.18" disallow="tram rail_urban rail rail_electric rail_fast ship container cable_car subway aircraft wheelchair scooter drone" />
    <edge id="-1087561817#4" from="10905212309" to="315118677" priority="3" type="highway.residential" numLanes="1" speed="13.89" shape="12762.23,6510.53 12772.84,6486.58 12787.02,6456.40 12794.01,6447.30 12805.48,6438.47 12817.97,6433.61 12834.03,6431.81" disallow="tram rail_urban rail rail_electric rail_fast ship container cable_car subway aircraft wheelchair scooter drone" />
    <edge id="-1087561817#5" from="337454138" to="10905212309" priority="3" type="highway.residential" numLanes="1" speed="13.89" disallow="tram rail_urban rail rail_electric rail_fast ship container cable_car subway aircraft wheelchair scooter drone" />
    <edge id="-1087561817#6" from="670246931" to="337454138" priority="3" type="highway.residential" numLanes="1" speed="13.89" shape="12737.92,6557.68 12745.21,6546.64 12752.36,6531.63 12757.92,6519.95" disallow="tram rail_urban rail rail_electric rail_fast ship container cable_car subway aircraft wheelchair scooter drone" />
    <edge id="-1087561817#7" from="11944646183" to="670246931" priority="3" type="highway.residential" numLanes="1" speed="13.89" shape="12708.51,6575.06 12730.64,6563.47 12737.92,6557.68" disallow="tram rail_urban rail rail_electric rail_fast ship container cable_car subway aircraft wheelchair scooter drone" />
    <edge id="-1087561817#8" from="670246844" to="11944646183" priority="3" type="highway.residential" numLanes="1" speed="13.89" shape="12687.82,6588.47 12700.20,6579.42 12708.51,6575.06" disallow="tram rail_urban rail rail_electric rail_fast ship container cable_car subway aircraft wheelchair scooter drone" />
    <edge id="-1087561817#9" from="670246915" to="670246844" priority="3" type="highway.residential" numLanes="1" speed="13.89" shape="12677.10,6600.60 12682.24,6594.00 12687.82,6588.47" disallow="tram rail_urban rail rail_electric rail_fast ship container cable_car subway aircraft wheelchair scooter drone" />
    <edge id="-1087561818#0" from="316323359" to="316323358" priority="4" type="highway.unclassified" numLanes="1" speed="13.89" shape="13182.26,6171.02 13188.78,6161.00 13189.73,6157.46 13189.02,6102.08 13188.99,6091.40" disallow="tram rail_urban rail rail_electric rail_fast ship container cable_car subway aircraft wheelchair scooter drone" />
    <edge id="-1087561818#1" from="316323361" to="316323359" priority="4" type="highway.unclassified" numLanes="1" speed="13.89" shape="13167.58,6198.63 13172.75,6183.37 13182.26,6171.02" disallow="tram rail_urban rail rail_electric rail_fast ship container cable_car subway aircraft wheelchair scooter drone" />
    <edge id="-1087561819" from="318309363" to="316323358" priority="3" type="highway.residential" numLanes="1" speed="13.89" shape="13146.07,6091.83 13174.41,6091.55 13188.99,6091.40" disallow="tram rail_urban rail rail_electric rail_fast ship container cable_car subway aircraft wheelchair scooter drone" />
    <edge id="-109239633" from="960866307" to="960866326" priority="3" type="highway.residential" numLanes="1" speed="13.89" shape="11344.56,7875.93 11351.26,7884.49 11352.84,7903.00 11358.90,7919.53 11370.82,7929.30 11387.81,7933.03 11397.85,7933.90" disallow="tram rail_urban rail rail_electric rail_fast ship container cable_car subway aircraft wheelchair scooter drone" />
    <edge id="-109470888#0" from="10866950142" to="1253161968" priority="10" type="highway.tertiary" numLanes="1" speed="19.44" disallow="tram rail_urban rail rail_electric rail_fast ship container cable_car subway aircraft wheelchair scooter drone">
        <param key="ref" value="D 35" />
    </edge>
    <edge id="-109470888#1" from="10866950135" to="10866950142" priority="10" type="highway.tertiary" numLanes="1" speed="19.44" disallow="tram rail_urban rail rail_electric rail_fast ship container cable_car subway aircraft wheelchair scooter drone">
        <param key="ref" value="D 35" />
    </edge>
    <edge id="-109470888#2" from="1253161879" to="10866950135" priority="10" type="highway.tertiary" numLanes="1" speed="19.44" shape="14221.99,4794.00 14364.06,4904.68 14415.98,4945.43" disallow="tram rail_urban rail rail_electric rail_fast ship container cable_car subway aircraft wheelchair scooter drone">
        <param key="ref" value="D 35" />
    </edge>
    <edge id="-109470888#3" from="242560617" to="1253161879" priority="10" type="highway.tertiary" numLanes="1" speed="19.44" shape="14170.41,4753.50 14183.23,4763.26 14221.99,4794.00" disallow="tram rail_urban rail rail_electric rail_fast ship container cable_car subway aircraft wheelchair scooter drone">
        <param key="ref" value="D 35" />
    </edge>
    <edge id="-109529874#0" from="1253826941" to="1253827051" priority="3" type="highway.residential" numLanes="1" speed="13.89" shape="15084.80,5085.12 15087.02,5091.27 15091.45,5095.34" disallow="tram rail_urban rail rail_electric rail_fast ship container cable_car subway aircraft wheelchair scooter drone" />
    <edge id="-109529874#1" from="5157284982" to="1253826941" priority="3" type="highway.residential" numLanes="1" speed="13.89" shape="15091.27,5065.48 15089.78,5066.79 15086.43,5071.87 15084.38,5078.85 15084.80,5085.12" disallow="tram rail_urban rail rail_electric rail_fast ship container cable_car subway aircraft wheelchair scooter drone" />
    <edge id="-109529874#2" from="243204846" to="5157284982" priority="3" type="highway.residential" numLanes="1" speed="13.89" shape="15117.85,5065.07 15110.84,5062.57 15103.16,5060.88 15096.88,5062.20 15091.27,5065.48" disallow="tram rail_urban rail rail_electric rail_fast ship container cable_car subway aircraft wheelchair scooter drone" />
    <edge id="-109584648" from="1254091871" to="1254091842" priority="3" type="highway.residential" numLanes="1" speed="13.89" disallow="tram rail_urban rail rail_electric rail_fast ship container cable_car subway aircraft wheelchair scooter drone" />
    <edge id="-109584650#0" from="1347490093" to="243206713" priority="3" type="highway.residential" numLanes="1" speed="13.89" shape="15386.40,4923.16 15390.40,4924.45 15393.87,4928.63 15395.19,4934.57 15386.47,4962.63 15390.69,4972.93" disallow="tram rail_urban rail rail_electric rail_fast ship container cable_car subway aircraft wheelchair scooter drone" />
    <edge id="-109584650#1" from="243206713" to="1347490093" priority="3" type="highway.residential" numLanes="1" speed="13.89" shape="15390.69,4972.93 15388.02,4981.52 15381.64,4981.42 15311.48,4933.06 15319.32,4907.45 15326.65,4903.96 15386.40,4923.16" disallow="tram rail_urban rail rail_electric rail_fast ship container cable_car subway aircraft wheelchair scooter drone" />
    <edge id="-109584651#0" from="1347489921" to="243205682" priority="3" type="highway.residential" numLanes="1" speed="13.89" disallow="tram rail_urban rail rail_electric rail_fast ship container cable_car subway aircraft wheelchair scooter drone" />
    <edge id="-109584651#1" from="243206381" to="1347489921" priority="3" type="highway.residential" numLanes="1" speed="13.89" disallow="tram rail_urban rail rail_electric rail_fast ship container cable_car subway aircraft wheelchair scooter drone" />
    <edge id="-109584651#10" from="243205818" to="1347559337" priority="3" type="highway.residential" numLanes="1" speed="13.89" shape="15148.67,4839.34 15118.92,4838.06 15112.76,4838.01" disallow="tram rail_urban rail rail_electric rail_fast ship container cable_car subway aircraft wheelchair scooter drone" />
    <edge id="-109584651#11" from="1347559333" to="243205818" priority="3" type="highway.residential" numLanes="1" speed="13.89" disallow="tram rail_urban rail rail_electric rail_fast ship container cable_car subway aircraft wheelchair scooter drone" />
    <edge id="-109584651#12" from="2699688215" to="1347559333" priority="3" type="highway.residential" numLanes="1" speed="13.89" disallow="tram rail_urban rail rail_electric rail_fast ship container cable_car subway aircraft wheelchair scooter drone" />
    <edge id="-109584651#13" from="1254091863" to="2699688215" priority="3" type="highway.residential" numLanes="1" speed="13.89" shape="15245.87,4848.21 15210.16,4842.22 15197.70,4841.07" disallow="tram rail_urban rail rail_electric rail_fast ship container cable_car subway aircraft wheelchair scooter drone" />
    <edge id="-109584651#14" from="243207009" to="1254091863" priority="3" type="highway.residential" numLanes="1" speed="13.89" shape="15318.59,4870.63 15314.65,4869.20 15307.47,4866.62 15245.87,4848.21" disallow="tram rail_urban rail rail_electric rail_fast ship container cable_car subway aircraft wheelchair scooter drone" />
    <edge id="-109584651#15" from="1347490094" to="243207009" priority="3" type="highway.residential" numLanes="1" speed="13.89" disallow="tram rail_urban rail rail_electric rail_fast ship container cable_car subway aircraft wheelchair scooter drone" />
    <edge id="-109584651#16" from="1252683125" to="1347490094" priority="3" type="highway.residential" numLanes="1" speed="13.89" disallow="tram rail_urban rail rail_electric rail_fast ship container cable_car subway aircraft wheelchair scooter drone" />
    <edge id="-109584651#17" from="243204699" to="1252683125" priority="3" type="highway.residential" numLanes="1" speed="13.89" disallow="tram rail_urban rail rail_electric rail_fast ship container cable_car subway aircraft wheelchair scooter drone" />
    <edge id="-109584651#2" from="243206384" to="243206381" priority="3" type="highway.residential" numLanes="1" speed="13.89" disallow="tram rail_urban rail rail_electric rail_fast ship container cable_car subway aircraft wheelchair scooter drone" />
    <edge id="-109584651#3" from="243206468" to="243206384" priority="3" type="highway.residential" numLanes="1" speed="13.89" disallow="tram rail_urban rail rail_electric rail_fast ship container cable_car subway aircraft wheelchair scooter drone" />
    <edge id="-109584651#4" from="1347559345" to="243206468" priority="3" type="highway.residential" numLanes="1" speed="13.89" shape="14992.75,4862.07 14973.97,4870.37 14943.22,4888.57" disallow="tram rail_urban rail rail_electric rail_fast ship container cable_car subway aircraft wheelchair scooter drone" />
    <edge id="-109584651#5" from="1347559349" to="1347559345" priority="3" type="highway.residential" numLanes="1" speed="13.89" shape="15028.88,4849.46 15008.04,4855.33 14992.75,4862.07" disallow="tram rail_urban rail rail_electric rail_fast ship container cable_car subway aircraft wheelchair scooter drone" />
    <edge id="-109584651#6" from="243206504" to="1347559349" priority="3" type="highway.residential" numLanes="1" speed="13.89" shape="15055.22,4844.80 15031.95,4848.60 15028.88,4849.46" disallow="tram rail_urban rail rail_electric rail_fast ship container cable_car subway aircraft wheelchair scooter drone" />
    <edge id="-109584651#7" from="1254091842" to="243206504" priority="3" type="highway.residential" numLanes="1" speed="13.89" disallow="tram rail_urban rail rail_electric rail_fast ship container cable_car subway aircraft wheelchair scooter drone" />
    <edge id="-109584651#8" from="243206640" to="1254091842" priority="3" type="highway.residential" numLanes="1" speed="13.89" disallow="tram rail_urban rail rail_electric rail_fast ship container cable_car subway aircraft wheelchair scooter drone" />
    <edge id="-109584651#9" from="1347559337" to="243206640" priority="3" type="highway.residential" numLanes="1" speed="13.89" disallow="tram rail_urban rail rail_electric rail_fast ship container cable_car subway aircraft wheelchair scooter drone" />
    <edge id="-109584652" from="1254091865" to="1254091856" priority="3" type="highway.residential" numLanes="1" speed="13.89" disallow="tram rail_urban rail rail_electric rail_fast ship container cable_car subway aircraft wheelchair scooter drone" />
    <edge id="-109584655" from="243204704" to="243206841" priority="3" type="highway.residential" numLanes="1" speed="13.89" shape="15437.24,4985.43 15443.59,4988.02 15454.63,4992.53" disallow="tram rail_urban rail rail_electric rail_fast ship container cable_car subway aircraft wheelchair scooter drone" />
    <edge id="-109696374#0" from="1255129543" to="291925566" priority="3" type="highway.residential" numLanes="1" speed="13.89" shape="11371.89,5356.41 11363.05,5356.00 11355.11,5357.11" disallow="tram rail_urban rail rail_electric rail_fast ship container cable_car subway aircraft wheelchair scooter drone" />
    <edge id="-109696374#1" from="1255129303" to="1255129543" priority="3" type="highway.residential" numLanes="1" speed="13.89" disallow="tram rail_urban rail rail_electric rail_fast ship container cable_car subway aircraft wheelchair scooter drone" />
    <edge id="-109696374#2" from="1255129290" to="1255129303" priority="3" type="highway.residential" numLanes="1" speed="13.89" disallow="tram rail_urban rail rail_electric rail_fast ship container cable_car subway aircraft wheelchair scooter drone" />
    <edge id="-109696374#3" from="1255129476" to="1255129290" priority="3" type="highway.residential" numLanes="1" speed="13.89" disallow="tram rail_urban rail rail_electric rail_fast ship container cable_car subway aircraft wheelchair scooter drone" />
    <edge id="-109696374#4" from="1255129097" to="1255129476" priority="3" type="highway.residential" numLanes="1" speed="13.89" shape="11509.23,5353.10 11506.39,5353.17 11449.20,5354.53" disallow="tram rail_urban rail rail_electric rail_fast ship container cable_car subway aircraft wheelchair scooter drone" />
    <edge id="-109696375#0" from="1255129092" to="1255129249" priority="3" type="highway.residential" numLanes="1" speed="13.89" disallow="tram rail_urban rail rail_electric rail_fast ship container cable_car subway aircraft wheelchair scooter drone" />
    <edge id="-109696375#1" from="1255129392" to="1255129092" priority="3" type="highway.residential" numLanes="1" speed="13.89" disallow="tram rail_urban rail rail_electric rail_fast ship container cable_car subway aircraft wheelchair scooter drone" />
    <edge id="-109696384" from="1255129429" to="1255129519" priority="3" type="highway.residential" numLanes="1" speed="13.89" shape="11484.66,5475.44 11485.85,5515.71 11497.20,5515.63 11496.57,5474.93" disallow="tram rail_urban rail rail_electric rail_fast ship container cable_car subway aircraft wheelchair scooter drone" />
    <edge id="-109696385#0" from="1255129211" to="1255129097" priority="3" type="highway.residential" numLanes="1" speed="13.89" shape="11509.90,5386.41 11509.39,5361.02 11509.23,5353.10" disallow="tram rail_urban rail rail_electric rail_fast ship container cable_car subway aircraft wheelchair scooter drone" />
    <edge id="-109696385#1" from="1255129519" to="1255129211" priority="3" type="highway.residential" numLanes="1" speed="13.89" shape="11496.57,5474.93 11504.71,5474.59 11509.27,5473.54 11511.56,5470.13 11509.90,5386.41" disallow="tram rail_urban rail rail_electric rail_fast ship container cable_car subway aircraft wheelchair scooter drone" />
    <edge id="-109696385#2" from="1255129429" to="1255129519" priority="3" type="highway.residential" numLanes="1" speed="13.89" disallow="tram rail_urban rail rail_electric rail_fast ship container cable_car subway aircraft wheelchair scooter drone" />
    <edge id="-109696385#3" from="1255129493" to="1255129429" priority="3" type="highway.residential" numLanes="1" speed="13.89" shape="11391.60,5431.67 11446.44,5474.44 11449.78,5476.35 11453.98,5476.73 11484.66,5475.44" disallow="tram rail_urban rail rail_electric rail_fast ship container cable_car subway aircraft wheelchair scooter drone" />
    <edge id="-109696385#4" from="1255129106" to="1255129493" priority="3" type="highway.residential" numLanes="1" speed="13.89" shape="11389.61,5389.36 11389.03,5425.83 11389.61,5429.20 11391.60,5431.67" disallow="tram rail_urban rail rail_electric rail_fast ship container cable_car subway aircraft wheelchair scooter drone" />