<?xml version="1.0" encoding="UTF-8"?>

<!-- generated on 2025-04-29 16:10:29 by Eclipse SUMO netconvert Version 1.22.0
<netconvertConfiguration xmlns:xsi="http://www.w3.org/2001/XMLSchema-instance" xsi:noNamespaceSchemaLocation="http://sumo.dlr.de/xsd/netconvertConfiguration.xsd">

    <input>
        <sumo-net-file value="la_verriere/la_verriere.net.xml"/>
    </input>

    <output>
        <plain-output-prefix value="la_verriere/la_verriere"/>
    </output>

    <processing>
        <geometry.min-radius.fix.railways value="false"/>
        <geometry.max-grade.fix value="false"/>
        <offset.disable-normalization value="true"/>
        <lefthand value="0"/>
    </processing>

    <tls_building>
        <tls.ignore-internal-junction-jam value="1"/>
    </tls_building>

    <junctions>
        <no-turnarounds value="true"/>
        <junctions.corner-detail value="5"/>
        <junctions.limit-turn-speed value="5.50"/>
        <rectangular-lane-cut value="0"/>
    </junctions>

    <pedestrian>
        <walkingareas value="0"/>
    </pedestrian>

</netconvertConfiguration>
-->

<tlLogics version="1.20" xmlns:xsi="http://www.w3.org/2001/XMLSchema-instance" xsi:noNamespaceSchemaLocation="http://sumo.dlr.de/xsd/tllogic_file.xsd">
    <tlLogic id="10143030476" type="static" programID="0" offset="0">
        <phase duration="82" state="GgGg"/>
        <phase duration="3"  state="yyyy"/>
        <phase duration="5"  state="rrrr"/>
    </tlLogic>
    <tlLogic id="10143030502" type="static" programID="0" offset="0">
        <phase duration="82" state="G"/>
        <phase duration="3"  state="y"/>
        <phase duration="5"  state="r"/>
    </tlLogic>
    <tlLogic id="10553214626" type="static" programID="0" offset="0">
        <phase duration="79" state="GG"/>
        <phase duration="6"  state="yy"/>
        <phase duration="5"  state="rr"/>
    </tlLogic>
    <tlLogic id="11032090236" type="static" programID="0" offset="0">
        <phase duration="40" state="GGgrrrrGgg"/>
        <phase duration="5"  state="yyyrrrryyy"/>
        <phase duration="40" state="rrrGGGGrrr"/>
        <phase duration="5"  state="rrryyyyrrr"/>
    </tlLogic>
    <tlLogic id="11708869872" type="static" programID="0" offset="0">
        <phase duration="80" state="GG"/>
        <phase duration="5"  state="yy"/>
        <phase duration="5"  state="rr"/>
    </tlLogic>
    <tlLogic id="12033650880" type="static" programID="0" offset="0">
        <phase duration="82" state="GG"/>
        <phase duration="3"  state="yy"/>
        <phase duration="5"  state="rr"/>
    </tlLogic>
    <tlLogic id="12033650881" type="static" programID="0" offset="0">
        <phase duration="82" state="GG"/>
        <phase duration="3"  state="yy"/>
        <phase duration="5"  state="rr"/>
    </tlLogic>
    <tlLogic id="12033650882" type="static" programID="0" offset="0">
        <phase duration="82" state="GG"/>
        <phase duration="3"  state="yy"/>
        <phase duration="5"  state="rr"/>
    </tlLogic>
    <tlLogic id="1253162098" type="static" programID="0" offset="0">
        <phase duration="40" state="GGrr"/>
        <phase duration="5"  state="yyrr"/>
        <phase duration="40" state="rrGG"/>
        <phase duration="5"  state="rryy"/>
    </tlLogic>
    <tlLogic id="1256316901" type="static" programID="0" offset="0">
        <phase duration="82" state="GG"/>
        <phase duration="3"  state="yy"/>
        <phase duration="5"  state="rr"/>
    </tlLogic>
    <tlLogic id="1256316937" type="static" programID="0" offset="0">
        <phase duration="80" state="GG"/>
        <phase duration="5"  state="yy"/>
        <phase duration="5"  state="rr"/>
    </tlLogic>
    <tlLogic id="1879692562" type="static" programID="0" offset="0">
        <phase duration="40" state="rrrrGggGGg"/>
        <phase duration="5"  state="rrrryyyyyy"/>
        <phase duration="40" state="GGGGrrrrrr"/>
        <phase duration="5"  state="yyyyrrrrrr"/>
    </tlLogic>
    <tlLogic id="2283167978" type="static" programID="0" offset="0">
        <phase duration="80" state="G"/>
        <phase duration="5"  state="y"/>
        <phase duration="5"  state="r"/>
    </tlLogic>
    <tlLogic id="2283167995" type="static" programID="0" offset="0">
        <phase duration="80" state="GG"/>
        <phase duration="5"  state="yy"/>
        <phase duration="5"  state="rr"/>
    </tlLogic>
    <tlLogic id="2306942511" type="static" programID="0" offset="0">
        <phase duration="42" state="rrrrGGgrrrrGGg"/>
        <phase duration="3"  state="rrrryyyrrrryyy"/>
        <phase duration="42" state="GGggrrrGGggrrr"/>
        <phase duration="3"  state="yyyyrrryyyyrrr"/>
    </tlLogic>
    <tlLogic id="241138858" type="static" programID="0" offset="0">
        <phase duration="40" state="GGGrrr"/>
        <phase duration="5"  state="yyyrrr"/>
        <phase duration="40" state="rrrGGG"/>
        <phase duration="5"  state="rrryyy"/>
    </tlLogic>
    <tlLogic id="250928117" type="static" programID="0" offset="0">
        <phase duration="80" state="GG"/>
        <phase duration="5"  state="yy"/>
        <phase duration="5"  state="rr"/>
    </tlLogic>
    <tlLogic id="313261257" type="static" programID="0" offset="0">
        <phase duration="27" state="rrrGggrrrGGg"/>
        <phase duration="3"  state="rrryyyrrryyy"/>
        <phase duration="27" state="GGGrrrrrrrrr"/>
        <phase duration="3"  state="yyyrrrrrrrrr"/>
        <phase duration="27" state="rrrrrrGGgGrr"/>
        <phase duration="3"  state="rrrrrryyyGrr"/>
    </tlLogic>
    <tlLogic id="313388107" type="static" programID="0" offset="0">
        <phase duration="42" state="rrrrGGggrrrrGGgg"/>
        <phase duration="3"  state="rrrryyyyrrrryyyy"/>
        <phase duration="42" state="GGggrrrrGGggrrrr"/>
        <phase duration="3"  state="yyyyrrrryyyyrrrr"/>
    </tlLogic>
    <tlLogic id="313792471" type="static" programID="0" offset="0">
        <phase duration="25" state="rrrrGGggrrrrGGggrrrr"/>
        <phase duration="5"  state="rrrryyyyrrrryyyyrrrr"/>
        <phase duration="25" state="rrrrrrrrGGggrrrrGGgg"/>
        <phase duration="5"  state="rrrrrrrryyyyrrrryyyy"/>
        <phase duration="25" state="GGGGrrrrrrrrrrrrrrrr"/>
        <phase duration="5"  state="yyyyrrrrrrrrrrrrrrrr"/>
    </tlLogic>
    <tlLogic id="332488370" type="static" programID="0" offset="0">
        <phase duration="42" state="GGrr"/>
        <phase duration="3"  state="yyrr"/>
        <phase duration="42" state="rrGG"/>
        <phase duration="3"  state="rryy"/>
    </tlLogic>
    <tlLogic id="361407998" type="static" programID="0" offset="0">
        <phase duration="39" state="GGrr"/>
        <phase duration="6"  state="yyrr"/>
        <phase duration="39" state="rrGG"/>
        <phase duration="6"  state="rryy"/>
    </tlLogic>
    <tlLogic id="361411552" type="static" programID="0" offset="0">
        <phase duration="39" state="rrrrGGgrrrrGGgg"/>
        <phase duration="6"  state="rrrryyyrrrryyyy"/>
        <phase duration="39" state="ggggrrrGGGgrrrr"/>
        <phase duration="6"  state="yyyyrrryyyyrrrr"/>
    </tlLogic>
    <tlLogic id="365506110" type="static" programID="0" offset="0">
        <phase duration="40" state="GgrrGg"/>
        <phase duration="5"  state="yyrryy"/>
        <phase duration="40" state="rrGGrr"/>
        <phase duration="5"  state="rryyrr"/>
    </tlLogic>
    <tlLogic id="475407887" type="static" programID="0" offset="0">
        <phase duration="42" state="GgGGrrr"/>
        <phase duration="3"  state="yyyyrrr"/>
        <phase duration="42" state="rrrrGGG"/>
        <phase duration="3"  state="rrrryyy"/>
    </tlLogic>
    <tlLogic id="475408061" type="static" programID="0" offset="0">
        <phase duration="80" state="GGG"/>
        <phase duration="5"  state="yyy"/>
        <phase duration="5"  state="rrr"/>
    </tlLogic>
    <tlLogic id="5157284532" type="static" programID="0" offset="0">
        <phase duration="79" state="G"/>
        <phase duration="6"  state="y"/>
        <phase duration="5"  state="r"/>
    </tlLogic>
    <tlLogic id="5157284990" type="static" programID="0" offset="0">
        <phase duration="79" state="GG"/>
        <phase duration="6"  state="yy"/>
        <phase duration="5"  state="rr"/>
    </tlLogic>
    <tlLogic id="5157285138" type="static" programID="0" offset="0">
        <phase duration="80" state="G"/>
        <phase duration="5"  state="y"/>
        <phase duration="5"  state="r"/>
    </tlLogic>
    <tlLogic id="5157285140" type="static" programID="0" offset="0">
        <phase duration="79" state="G"/>
        <phase duration="6"  state="y"/>
        <phase duration="5"  state="r"/>
    </tlLogic>
    <tlLogic id="5157285149" type="static" programID="0" offset="0">
        <phase duration="79" state="G"/>
        <phase duration="6"  state="y"/>
        <phase duration="5"  state="r"/>
    </tlLogic>
    <tlLogic id="5157285272" type="static" programID="0" offset="0">
        <phase duration="79" state="G"/>
        <phase duration="6"  state="y"/>
        <phase duration="5"  state="r"/>
    </tlLogic>
    <tlLogic id="5157285510" type="static" programID="0" offset="0">
        <phase duration="79" state="G"/>
        <phase duration="6"  state="y"/>
        <phase duration="5"  state="r"/>
    </tlLogic>
    <tlLogic id="5489185330" type="static" programID="0" offset="0">
        <phase duration="82" state="GgGg"/>
        <phase duration="3"  state="yyyy"/>
        <phase duration="5"  state="rrrr"/>
    </tlLogic>
    <tlLogic id="5489185356" type="static" programID="0" offset="0">
        <phase duration="82" state="GG"/>
        <phase duration="3"  state="yy"/>
        <phase duration="5"  state="rr"/>
    </tlLogic>
    <tlLogic id="5489185357" type="static" programID="0" offset="0">
        <phase duration="79" state="GG"/>
        <phase duration="6"  state="yy"/>
        <phase duration="5"  state="rr"/>
    </tlLogic>
    <tlLogic id="570988077" type="static" programID="0" offset="0">
        <phase duration="42" state="rrrGgGG"/>
        <phase duration="3"  state="rrryyyy"/>
        <phase duration="42" state="GGGrrrr"/>
        <phase duration="3"  state="yyyrrrr"/>
    </tlLogic>
    <tlLogic id="571066137" type="static" programID="0" offset="0">
        <phase duration="40" state="rrrrGGggrrrrGGgg"/>
        <phase duration="5"  state="rrrryyyyrrrryyyy"/>
        <phase duration="40" state="GGggrrrrGGggrrrr"/>
        <phase duration="5"  state="yyyyrrrryyyyrrrr"/>
    </tlLogic>
    <tlLogic id="576717563" type="static" programID="0" offset="0">
        <phase duration="80" state="G"/>
        <phase duration="5"  state="y"/>
        <phase duration="5"  state="r"/>
    </tlLogic>
    <tlLogic id="576717980" type="static" programID="0" offset="0">
        <phase duration="80" state="G"/>
        <phase duration="5"  state="y"/>
        <phase duration="5"  state="r"/>
    </tlLogic>
    <tlLogic id="7537825209" type="static" programID="0" offset="0">
        <phase duration="42" state="rrrrGGgrrrrGGg"/>
        <phase duration="3"  state="rrrryyyrrrryyy"/>
        <phase duration="42" state="GGggrrrGGggrrr"/>
        <phase duration="3"  state="yyyyrrryyyyrrr"/>
    </tlLogic>
    <tlLogic id="960866498" type="static" programID="0" offset="0">
        <phase duration="82" state="GgGg"/>
        <phase duration="3"  state="yyyy"/>
        <phase duration="5"  state="rrrr"/>
    </tlLogic>
    <tlLogic id="GS_10172980600" type="static" programID="0" offset="0">
        <phase duration="40" state="GGGGrrrrrr"/>
        <phase duration="5"  state="yyyyrrrrrr"/>
        <phase duration="40" state="rrrrGGGGGG"/>
        <phase duration="5"  state="rrrryyyyyy"/>
    </tlLogic>
    <tlLogic id="GS_105459998" type="static" programID="0" offset="0">
        <phase duration="25" state="GGrrrr"/>
        <phase duration="5"  state="yyrrrr"/>
        <phase duration="25" state="rrrrGG"/>
        <phase duration="5"  state="rrrryy"/>
        <phase duration="25" state="rrGGrr"/>
        <phase duration="5"  state="rryyrr"/>
    </tlLogic>
    <tlLogic id="GS_2165172615" type="static" programID="0" offset="0">
        <phase duration="42" state="GGGGrrrr"/>
        <phase duration="3"  state="yyyyrrrr"/>
        <phase duration="42" state="rrrrGGGG"/>
        <phase duration="3"  state="rrrryyyy"/>
    </tlLogic>
    <tlLogic id="joinedS_1027300629_1027300985_1027301064_1027301070_#1more" type="static" programID="0" offset="0">
        <phase duration="16" state="GGrrrrrrrr"/>
        <phase duration="5"  state="yyrrrrrrrr"/>
        <phase duration="18" state="rrrrGGrrrr"/>
        <phase duration="5"  state="rrrryyrrrr"/>
        <phase duration="18" state="rrGGrrGGrr"/>
        <phase duration="5"  state="rrGGrryyrr"/>
        <phase duration="18" state="rrGGrrrrGG"/>
        <phase duration="5"  state="rryyrrrryy"/>
    </tlLogic>
    <tlLogic id="joinedS_1027300640_1027300874_1027301044_1027301182_#1more" type="static" programID="0" offset="0">
        <phase duration="25" state="GGGGGGGrGG"/>
        <phase duration="5"  state="GGGGGGGryy"/>
        <phase duration="55" state="GGGGGGGGrr"/>
        <phase duration="5"  state="GGGGGGGyrr"/>
    </tlLogic>
    <tlLogic id="joinedS_10838097654_12098584629" type="static" programID="0" offset="0">
        <phase duration="40" state="rrGGGGGGGrrrrrr"/>
        <phase duration="5"  state="rryyyyyyyrrrrrr"/>
        <phase duration="40" state="GGrrrrrrrGggGGg"/>
        <phase duration="5"  state="yyrrrrrrryyyyyy"/>
    </tlLogic>
    <tlLogic id="joinedS_11708869873_5239269953_570977066" type="static" programID="0" offset="0">
        <phase duration="16" state="GGGGgrrrGggGGGrrrrrr"/>
        <phase duration="5"  state="yyyyyrrryyyGGGrrrrrr"/>
        <phase duration="18" state="rrrrrGGGrrrGGGrrrrrr"/>
        <phase duration="5"  state="rrrrrGyGrrrgggrrrrrr"/>
        <phase duration="18" state="rrGggGrGggggggGggGrG"/>
        <phase duration="5"  state="rryyyyrygggyyyyyyGrG"/>
        <phase duration="18" state="rrrrrrrrGGGrrrrrrGGG"/>
        <phase duration="5"  state="rrrrrrrrGggrrrrrryyy"/>
    </tlLogic>
    <tlLogic id="joinedS_1256316987_796103879" type="static" programID="0" offset="0">
        <phase duration="42" state="GGGGGrr"/>
        <phase duration="3"  state="GGGyyrr"/>
        <phase duration="42" state="GGGrrGg"/>
        <phase duration="3"  state="GGGrryy"/>
    </tlLogic>
    <tlLogic id="joinedS_1829580649_1829580676_1881415529_1881415551_#3more" type="static" programID="0" offset="0">
        <phase duration="6"  state="GGGrrrrrrrrrrrrrrrrrrrrrrrrrrr"/>
        <phase duration="6"  state="yyyrrrrrrrrrrrrrrrrrrrrrrrrrrr"/>
        <phase duration="7"  state="rrrGrrrrrrrrrrrrrrrrrrrrrrrrrr"/>
        <phase duration="6"  state="rrryrrrrrrrrrrrrrrrrrrrrrrrrrr"/>
        <phase duration="7"  state="rrrrGGrrrrrrrrrrrrrrrrrrrrrrrr"/>
        <phase duration="6"  state="rrrryyrrrrrrrrrrrrrrrrrrrrrrrr"/>
        <phase duration="7"  state="rrrrrrGGGgrrrrGggrrrrrGGGGrrrr"/>
        <phase duration="6"  state="rrrrrryyyyrrrryyyrrrrrGGGGrrrr"/>
        <phase duration="7"  state="rrrrrrrrrrGGGGrrrrrrrrGGGGrrrr"/>
        <phase duration="6"  state="rrrrrrrrrryyyyrrrrrrrryyyyrrrr"/>
        <phase duration="7"  state="rrrrrrrrrrrrrrGGGGGGGGrrrrrrrr"/>
        <phase duration="6"  state="rrrrrrrrrrrrrrgggGyyyGrrrrrrrr"/>
        <phase duration="7"  state="rrrrrrrGggGrrGgggGrrrGggggGGgg"/>
        <phase duration="6"  state="rrrrrrryyyyrryyyyyrrryyyyyyyyy"/>
    </tlLogic>
    <tlLogic id="joinedS_241937304_361407975" type="static" programID="0" offset="0">
        <phase duration="39" state="rGrrGG"/>
        <phase duration="6"  state="ryrryy"/>
        <phase duration="39" state="GrGGrr"/>
        <phase duration="6"  state="yryyrr"/>
    </tlLogic>
    <tlLogic id="joinedS_256739938_256739939" type="static" programID="0" offset="0">
        <phase duration="40" state="rrrGGGrrrGGGGrrrrrr"/>
        <phase duration="5"  state="rrryyyrrryyyyrrrrrr"/>
        <phase duration="40" state="GGgrrrGggrrrrGggGGg"/>
        <phase duration="5"  state="yyyrrryyyrrrryyyyyy"/>
    </tlLogic>
    <tlLogic id="joinedS_258926295_6517961627" type="static" programID="0" offset="0">
        <phase duration="25" state="rrrGGGrrrGGgGrrrrr"/>
        <phase duration="5"  state="rrrGyyrrryyyyrrrrr"/>
        <phase duration="25" state="GGgGrrrrrrrrrrrGGG"/>
        <phase duration="5"  state="yyyyrrrrrrrrrrryyy"/>
        <phase duration="25" state="rrrrrrGGGrrrGGGrrr"/>
        <phase duration="5"  state="rrrrrryyyrrrGyyrrr"/>
    </tlLogic>
    <tlLogic id="joinedS_274902763_291925762" type="static" programID="0" offset="0">
        <phase duration="42" state="rrrGGGGrrrrrrrrrGGGG"/>
        <phase duration="3"  state="rrryyyyrrrrrrrrryyyy"/>
        <phase duration="42" state="GGgrrrrGggGggGGgrrrr"/>
        <phase duration="3"  state="yyyrrrryyyyyyyyyrrrr"/>
    </tlLogic>
    <tlLogic id="joinedS_274902826_291925731" type="static" programID="0" offset="0">
        <phase duration="42" state="rrrGGGGrrrrrrrrrGGGG"/>
        <phase duration="3"  state="rrryyyyrrrrrrrrryyyy"/>
        <phase duration="42" state="GGgrrrrGggGggGGgrrrr"/>
        <phase duration="3"  state="yyyrrrryyyyyyyyyrrrr"/>
    </tlLogic>
    <tlLogic id="joinedS_313261295_315533117_315533118" type="static" programID="0" offset="0">
        <phase duration="15" state="GGgrrrGggGggGGgrrrGGrrrr"/>
        <phase duration="3"  state="yyyrrryyyGggGGgrrrGGrrrr"/>
        <phase duration="15" state="rrrGGGrrrGggGGgrrrGGrrrr"/>
        <phase duration="3"  state="rrryyyrrryyyyyyrrrGGrrrr"/>
        <phase duration="15" state="rrrrrrGGGrrrrrrGGGGGrrrr"/>
        <phase duration="3"  state="rrrrrrGGGrrrrrryyyGgrrrr"/>
        <phase duration="15" state="rrrrrrGGGGggGGgrrrGgGgrr"/>
        <phase duration="3"  state="rrrrrrGGGGggGGgrrryyyyrr"/>
        <phase duration="15" state="rrrrrrGGGGggGGgrrrrrrrGG"/>
        <phase duration="3"  state="rrrrrrGggGggGGgrrrrrrryy"/>
    </tlLogic>
    <tlLogic id="joinedS_313406956_5113008082_5156746938_916768945" type="static" programID="0" offset="0">
        <phase duration="25" state="rrrrrrrGGGrrGGrG"/>
        <phase duration="5"  state="rrrrrrryyyrrGGrG"/>
        <phase duration="25" state="rrrGGGGrrrGGGGrG"/>
        <phase duration="5"  state="rrryyyyrrryyGGrG"/>
        <phase duration="25" state="GGGrrrrrrrrrGGGG"/>
        <phase duration="5"  state="yyyrrrrrrrrrGGyG"/>
    </tlLogic>
    <tlLogic id="joinedS_3735462609_3735462610_3735462611_570977097" type="static" programID="0" offset="0">
        <phase duration="10" state="Grrrrrrrrrrrrrrrrrrr"/>
        <phase duration="5"  state="yrrrrrrrrrrrrrrrrrrr"/>
        <phase duration="10" state="rGrrrrrrrrrrrrrrrrrr"/>
        <phase duration="5"  state="ryrrrrrrrrrrrrrrrrrr"/>
        <phase duration="10" state="rrGGrrrrrrrrrGGGGrrr"/>
        <phase duration="5"  state="rryyrrrrrrrrryyyyrrr"/>
        <phase duration="10" state="rrrrGGGGGGrrrrrrrrrr"/>
        <phase duration="5"  state="rrrryyyyyyrrrrrrrrrr"/>
        <phase duration="10" state="rrrrrrrrrrGGGrrrrrrr"/>
        <phase duration="5"  state="rrrrrrrrrryyyrrrrrrr"/>
        <phase duration="10" state="rrrrrrrrrrrrrrrrrGGG"/>
        <phase duration="5"  state="rrrrrrrrrrrrrrrrryyy"/>
    </tlLogic>
    <tlLogic id="joinedS_5113007735_5156746302_571113930_960866352" type="static" programID="0" offset="0">
        <phase duration="27" state="GGGGrrrrrrrrrrrrGGGGrrrrrrGGGG"/>
        <phase duration="3"  state="yyyyrrrrrrrrrrrrggggrrrrrrGyyy"/>
        <phase duration="57" state="rrrrGGggggggGGgggggggggGGgGrrr"/>
        <phase duration="3"  state="rrrryyyyyyyyyyyyggggyyyyyyGrrr"/>
    </tlLogic>
    <tlLogic id="joinedS_571081599_571082733" type="static" programID="0" offset="0">
        <phase duration="42" state="rrrrrrrGGGGgggrrrrrrrggggGGG"/>
        <phase duration="3"  state="rrrrrrryyyyyyyrrrrrrryyyyyyy"/>
        <phase duration="42" state="GGGGgggrrrrrrrggggGGGrrrrrrr"/>
        <phase duration="3"  state="yyyyyyyrrrrrrryyyyyyyrrrrrrr"/>
    </tlLogic>
    <tlLogic id="joinedS_979886005_979886272" type="static" programID="0" offset="0">
        <phase duration="42" state="rrrGGGGrrrGGGGrrrrrr"/>
        <phase duration="3"  state="rrryyyyrrryyyyrrrrrr"/>
        <phase duration="42" state="GGgrrrrGggrrrrGggGGg"/>
        <phase duration="3"  state="yyyrrrryyyrrrryyyyyy"/>
    </tlLogic>

    <connection from="-1105463391#0" to="229883112#1" fromLane="0" toLane="0" tl="2306942511" linkIndex="7"/>
    <connection from="-1105463391#0" to="-1105463392#0" fromLane="0" toLane="0" tl="2306942511" linkIndex="8"/>
    <connection from="-1105463391#0" to="-229883112#0" fromLane="0" toLane="0" tl="2306942511" linkIndex="9"/>
    <connection from="-1105463391#0" to="1105463392#1" fromLane="0" toLane="0" tl="2306942511" linkIndex="10"/>
    <connection from="-114666461#2" to="-114666461#1" fromLane="0" toLane="0" tl="joinedS_979886005_979886272" linkIndex="14"/>
    <connection from="-114666461#2" to="1112075260#1" fromLane="0" toLane="1" tl="joinedS_979886005_979886272" linkIndex="15"/>
    <connection from="-114666461#2" to="114666461#2" fromLane="0" toLane="0" tl="joinedS_979886005_979886272" linkIndex="16"/>
    <connection from="-1197071400#1" to="-1197071400#0" fromLane="0" toLane="0" tl="joinedS_256739938_256739939" linkIndex="6"/>
    <connection from="-1197071400#1" to="318127077#0" fromLane="0" toLane="0" tl="joinedS_256739938_256739939" linkIndex="7"/>
    <connection from="-1197071400#1" to="1197071400#1" fromLane="0" toLane="0" tl="joinedS_256739938_256739939" linkIndex="8"/>
    <connection from="-1283060619" to="-1286295878#1" fromLane="0" toLane="0" tl="joinedS_313406956_5113008082_5156746938_916768945" linkIndex="7"/>
    <connection from="-1283060619" to="1087578595#0" fromLane="0" toLane="1" tl="joinedS_313406956_5113008082_5156746938_916768945" linkIndex="8"/>
    <connection from="-1283060619" to="1283060619" fromLane="0" toLane="0" tl="joinedS_313406956_5113008082_5156746938_916768945" linkIndex="9"/>
    <connection from="-1286295878#1" to="-1286295878#0" fromLane="0" toLane="0" tl="joinedS_313406956_5113008082_5156746938_916768945" linkIndex="15"/>
    <connection from="-1332451047#1" to="-26828799#0" fromLane="0" toLane="0" tl="joinedS_571081599_571082733" linkIndex="14"/>
    <connection from="-1332451047#1" to="-1332451047#0" fromLane="0" toLane="0" tl="joinedS_571081599_571082733" linkIndex="15"/>
    <connection from="-1332451047#1" to="26828799#1" fromLane="0" toLane="0" tl="joinedS_571081599_571082733" linkIndex="16"/>
    <connection from="-1332451047#1" to="1332451047#1" fromLane="0" toLane="0" tl="joinedS_571081599_571082733" linkIndex="17"/>
    <connection from="-1334485958#0" to="-1334485957#0" fromLane="0" toLane="0" tl="11032090236" linkIndex="7"/>
    <connection from="-1334485958#0" to="370297373#3" fromLane="0" toLane="1" tl="11032090236" linkIndex="8"/>
    <connection from="-1334485958#0" to="1334485957#1" fromLane="0" toLane="0" tl="11032090236" linkIndex="9"/>
    <connection from="-1334485958#1" to="1080383825#2" fromLane="0" toLane="0" tl="joinedS_10838097654_12098584629" linkIndex="12"/>
    <connection from="-1334485958#1" to="-1334485958#0" fromLane="0" toLane="0" tl="joinedS_10838097654_12098584629" linkIndex="13"/>
    <connection from="-1334485958#1" to="1334485958#1" fromLane="0" toLane="0" tl="joinedS_10838097654_12098584629" linkIndex="14"/>
    <connection from="-177706188#5" to="-177706188#4" fromLane="0" toLane="0" tl="475407887" linkIndex="0"/>
    <connection from="-177706188#5" to="771883905#3" fromLane="0" toLane="0" tl="475407887" linkIndex="1"/>
    <connection from="-177706213#1" to="-177706213#0" fromLane="0" toLane="0" tl="joinedS_1829580649_1829580676_1881415529_1881415551_#3more" linkIndex="22"/>
    <connection from="-177706213#1" to="177706203" fromLane="0" toLane="0" tl="joinedS_1829580649_1829580676_1881415529_1881415551_#3more" linkIndex="23"/>
    <connection from="-177706213#1" to="617181969#0" fromLane="0" toLane="1" tl="joinedS_1829580649_1829580676_1881415529_1881415551_#3more" linkIndex="24"/>
    <connection from="-177706213#1" to="177706213#1" fromLane="0" toLane="0" tl="joinedS_1829580649_1829580676_1881415529_1881415551_#3more" linkIndex="25"/>
    <connection from="-177706213#2" to="201329630#1" fromLane="0" toLane="0" tl="joinedS_1829580649_1829580676_1881415529_1881415551_#3more" linkIndex="7"/>
    <connection from="-177706213#2" to="-177706213#1" fromLane="0" toLane="0" tl="joinedS_1829580649_1829580676_1881415529_1881415551_#3more" linkIndex="8"/>
    <connection from="-177706213#2" to="177706213#2" fromLane="0" toLane="0" tl="joinedS_1829580649_1829580676_1881415529_1881415551_#3more" linkIndex="9"/>
    <connection from="-202273955#6" to="-202273955#5" fromLane="0" toLane="0" tl="joinedS_274902826_291925731" linkIndex="10"/>
    <connection from="-202273955#6" to="23906057#3" fromLane="0" toLane="1" tl="joinedS_274902826_291925731" linkIndex="11"/>
    <connection from="-202273955#6" to="202273955#6" fromLane="0" toLane="0" tl="joinedS_274902826_291925731" linkIndex="12"/>
    <connection from="-202567216#0" to="-82567071#3" fromLane="0" toLane="0" tl="365506110" linkIndex="4"/>
    <connection from="-202567216#0" to="202567216#0" fromLane="0" toLane="0" tl="365506110" linkIndex="5"/>
    <connection from="-217422458#4" to="45028902#0" fromLane="0" toLane="0" tl="571066137" linkIndex="4"/>
    <connection from="-217422458#4" to="-217422458#3" fromLane="0" toLane="0" tl="571066137" linkIndex="5"/>
    <connection from="-217422458#4" to="-61697665#4" fromLane="0" toLane="0" tl="571066137" linkIndex="6"/>
    <connection from="-217422458#4" to="217422458#4" fromLane="0" toLane="0" tl="571066137" linkIndex="7"/>
    <connection from="-227582208" to="172024838#3" fromLane="0" toLane="0" tl="313792471" linkIndex="16"/>
    <connection from="-227582208" to="93480265" fromLane="0" toLane="0" tl="313792471" linkIndex="17"/>
    <connection from="-227582208" to="23967267#5" fromLane="0" toLane="0" tl="313792471" linkIndex="18"/>
    <connection from="-227582208" to="227582208" fromLane="0" toLane="0" tl="313792471" linkIndex="19"/>
    <connection from="-228074659#1" to="-228074659#0" fromLane="0" toLane="0" tl="2367206522" linkIndex="0"/>
    <connection from="-228074659#3" to="-228074659#2" fromLane="0" toLane="0" tl="2376893938" linkIndex="1"/>
    <connection from="-228074659#4" to="-228074659#3" fromLane="0" toLane="0" tl="2376893924" linkIndex="0"/>
    <connection from="-228074659#5" to="-228074659#4" fromLane="0" toLane="0" tl="2376893936" linkIndex="1"/>
    <connection from="-228074659#6" to="-228074659#5" fromLane="0" toLane="0" tl="2376893917" linkIndex="1"/>
    <connection from="-228074659#7" to="-228074659#6" fromLane="0" toLane="0" tl="2376893925" linkIndex="1"/>
    <connection from="-229045542#1" to="-229045542#0" fromLane="0" toLane="0" tl="576718925" linkIndex="0"/>
    <connection from="-229045542#2" to="-229045542#1" fromLane="0" toLane="0" tl="4322897054" linkIndex="0"/>
    <connection from="-229045542#3" to="-229045542#2" fromLane="0" toLane="0" tl="4322897052" linkIndex="0"/>
    <connection from="-229045542#4" to="-229045542#3" fromLane="0" toLane="0" tl="4322896984" linkIndex="1"/>
    <connection from="-229045542#5" to="-229045542#4" fromLane="0" toLane="0" tl="1077000051" linkIndex="0"/>
    <connection from="-229045542#6" to="-229045542#5" fromLane="0" toLane="0" tl="4322896977" linkIndex="0"/>
    <connection from="-229045542#7" to="-229045542#6" fromLane="0" toLane="0" tl="4322896846" linkIndex="1"/>
    <connection from="-229045542#8" to="-229045542#7" fromLane="0" toLane="0" tl="4322896854" linkIndex="1"/>
    <connection from="-229045542#9" to="-229045542#8" fromLane="0" toLane="0" tl="4322896857" linkIndex="1"/>
    <connection from="-229053214#1" to="-229053214#0" fromLane="0" toLane="0" tl="4320933538" linkIndex="0"/>
    <connection from="-229053214#10" to="-229053214#9" fromLane="0" toLane="0" tl="2376893944" linkIndex="0"/>
    <connection from="-229053214#14" to="-229053214#13" fromLane="0" toLane="0" tl="105450428" linkIndex="1"/>
    <connection from="-229053214#3" to="-229053214#2" fromLane="0" toLane="0" tl="4320933541" linkIndex="0"/>
    <connection from="-229053214#4" to="-229053214#3" fromLane="0" toLane="0" tl="4320933542" linkIndex="0"/>
    <connection from="-229053214#5" to="-229053214#4" fromLane="0" toLane="0" tl="1079314153" linkIndex="0"/>
    <connection from="-229053214#7" to="-229053214#6" fromLane="0" toLane="0" tl="1079314398" linkIndex="0"/>
    <connection from="-229053214#9" to="-229053214#8" fromLane="0" toLane="0" tl="2376893940" linkIndex="0"/>
    <connection from="-229053215#1" to="-229053215#0" fromLane="0" toLane="0" tl="1079313657" linkIndex="1"/>
    <connection from="-229053215#10" to="-229053215#9" fromLane="0" toLane="0" tl="4321517226" linkIndex="1"/>
    <connection from="-229053215#11" to="-229053215#10" fromLane="0" toLane="0" tl="4321517227" linkIndex="1"/>
    <connection from="-229053215#2" to="-229053215#1" fromLane="0" toLane="0" tl="4321516999" linkIndex="0"/>
    <connection from="-229053215#4" to="-229053215#3" fromLane="0" toLane="0" tl="1079314912" linkIndex="0"/>
    <connection from="-229053215#9" to="-229053215#8" fromLane="0" toLane="0" tl="1079313282" linkIndex="1"/>
    <connection from="-229883112#1" to="-1105463392#0" fromLane="0" toLane="0" tl="2306942511" linkIndex="4"/>
    <connection from="-229883112#1" to="-229883112#0" fromLane="0" toLane="0" tl="2306942511" linkIndex="5"/>
    <connection from="-229883112#1" to="1105463392#1" fromLane="0" toLane="0" tl="2306942511" linkIndex="6"/>
    <connection from="-25212039#0" to="23709142#4" fromLane="0" toLane="0" tl="joinedS_274902763_291925762" linkIndex="0"/>