<?xml version="1.0" encoding="UTF-8"?>

<!-- generated on 2025-04-29 19:26:11 by Eclipse SUMO netconvert Version 1.22.0
<netconvertConfiguration xmlns:xsi="http://www.w3.org/2001/XMLSchema-instance" xsi:noNamespaceSchemaLocation="http://sumo.dlr.de/xsd/netconvertConfiguration.xsd">

    <input>
        <sumo-net-file value="guyancourt/guyancourt.net.xml"/>
    </input>

    <output>
        <plain-output-prefix value="guyancourt/guyancourt"/>
    </output>

    <processing>
        <geometry.min-radius.fix.railways value="false"/>
        <geometry.max-grade.fix value="false"/>
        <offset.disable-normalization value="true"/>
        <lefthand value="0"/>
    </processing>

    <tls_building>
        <tls.ignore-internal-junction-jam value="1"/>
    </tls_building>

    <junctions>
        <no-turnarounds value="true"/>
        <junctions.corner-detail value="5"/>
        <junctions.limit-turn-speed value="5.50"/>
        <rectangular-lane-cut value="0"/>
    </junctions>

    <pedestrian>
        <walkingareas value="0"/>
    </pedestrian>

</netconvertConfiguration>
-->

<tlLogics version="1.20" xmlns:xsi="http://www.w3.org/2001/XMLSchema-instance" xsi:noNamespaceSchemaLocation="http://sumo.dlr.de/xsd/tllogic_file.xsd">
    <tlLogic id="1018661004" type="static" programID="0" offset="0">
        <phase duration="82" state="G"/>
        <phase duration="3"  state="y"/>
        <phase duration="5"  state="r"/>
    </tlLogic>
    <tlLogic id="1018663204" type="static" programID="0" offset="0">
        <phase duration="82" state="G"/>
        <phase duration="3"  state="y"/>
        <phase duration="5"  state="r"/>
    </tlLogic>
    <tlLogic id="1018663214" type="static" programID="0" offset="0">
        <phase duration="82" state="G"/>
        <phase duration="3"  state="y"/>
        <phase duration="5"  state="r"/>
    </tlLogic>
    <tlLogic id="1018663303" type="static" programID="0" offset="0">
        <phase duration="82" state="GGG"/>
        <phase duration="3"  state="yyy"/>
        <phase duration="5"  state="rrr"/>
    </tlLogic>
    <tlLogic id="1018663333" type="static" programID="0" offset="0">
        <phase duration="82" state="GG"/>
        <phase duration="3"  state="yy"/>
        <phase duration="5"  state="rr"/>
    </tlLogic>
    <tlLogic id="1018735808" type="static" programID="0" offset="0">
        <phase duration="82" state="GG"/>
        <phase duration="3"  state="yy"/>
        <phase duration="5"  state="rr"/>
    </tlLogic>
    <tlLogic id="1018735820" type="static" programID="0" offset="0">
        <phase duration="82" state="GGG"/>
        <phase duration="3"  state="yyy"/>
        <phase duration="5"  state="rrr"/>
    </tlLogic>
    <tlLogic id="1018735828" type="static" programID="0" offset="0">
        <phase duration="82" state="GG"/>
        <phase duration="3"  state="yy"/>
        <phase duration="5"  state="rr"/>
    </tlLogic>
    <tlLogic id="1018735830" type="static" programID="0" offset="0">
        <phase duration="82" state="GGG"/>
        <phase duration="3"  state="yyy"/>
        <phase duration="5"  state="rrr"/>
    </tlLogic>
    <tlLogic id="1018735837" type="static" programID="0" offset="0">
        <phase duration="82" state="GGG"/>
        <phase duration="3"  state="yyy"/>
        <phase duration="5"  state="rrr"/>
    </tlLogic>
    <tlLogic id="1018735849" type="static" programID="0" offset="0">
        <phase duration="82" state="GG"/>
        <phase duration="3"  state="yy"/>
        <phase duration="5"  state="rr"/>
    </tlLogic>
    <tlLogic id="1018735860" type="static" programID="0" offset="0">
        <phase duration="82" state="G"/>
        <phase duration="3"  state="y"/>
        <phase duration="5"  state="r"/>
    </tlLogic>
    <tlLogic id="1018735874" type="static" programID="0" offset="0">
        <phase duration="80" state="G"/>
        <phase duration="5"  state="y"/>
        <phase duration="5"  state="r"/>
    </tlLogic>
    <tlLogic id="1018735879" type="static" programID="0" offset="0">
        <phase duration="82" state="GG"/>
        <phase duration="3"  state="yy"/>
        <phase duration="5"  state="rr"/>
    </tlLogic>
    <tlLogic id="1018735885" type="static" programID="0" offset="0">
        <phase duration="82" state="GGG"/>
        <phase duration="3"  state="yyy"/>
        <phase duration="5"  state="rrr"/>
    </tlLogic>
    <tlLogic id="1018735928" type="static" programID="0" offset="0">
        <phase duration="82" state="GGG"/>
        <phase duration="3"  state="yyy"/>
        <phase duration="5"  state="rrr"/>
    </tlLogic>
    <tlLogic id="1018735974" type="static" programID="0" offset="0">
        <phase duration="80" state="GG"/>
        <phase duration="5"  state="yy"/>
        <phase duration="5"  state="rr"/>
    </tlLogic>
    <tlLogic id="1018735977" type="static" programID="0" offset="0">
        <phase duration="82" state="G"/>
        <phase duration="3"  state="y"/>
        <phase duration="5"  state="r"/>
    </tlLogic>
    <tlLogic id="1018735981" type="static" programID="0" offset="0">
        <phase duration="82" state="G"/>
        <phase duration="3"  state="y"/>
        <phase duration="5"  state="r"/>
    </tlLogic>
    <tlLogic id="1018735999" type="static" programID="0" offset="0">
        <phase duration="82" state="G"/>
        <phase duration="3"  state="y"/>
        <phase duration="5"  state="r"/>
    </tlLogic>
    <tlLogic id="1026677589" type="static" programID="0" offset="0">
        <phase duration="39" state="rrrGggrrrGGg"/>
        <phase duration="6"  state="rrryyyrrryyy"/>
        <phase duration="39" state="GggrrrGGgrrr"/>
        <phase duration="6"  state="yyyrrryyyrrr"/>
    </tlLogic>
    <tlLogic id="1026677884" type="static" programID="0" offset="0">
        <phase duration="39" state="GggGGgrrr"/>
        <phase duration="6"  state="yyyyyyrrr"/>
        <phase duration="39" state="rrrrrrGGG"/>
        <phase duration="6"  state="rrrrrryyy"/>
    </tlLogic>
    <tlLogic id="1026678117" type="static" programID="0" offset="0">
        <phase duration="82" state="G"/>
        <phase duration="3"  state="y"/>
        <phase duration="5"  state="r"/>
    </tlLogic>
    <tlLogic id="1026678395" type="static" programID="0" offset="0">
        <phase duration="82" state="GG"/>
        <phase duration="3"  state="yy"/>
        <phase duration="5"  state="rr"/>
    </tlLogic>
    <tlLogic id="1027006459" type="static" programID="0" offset="0">
        <phase duration="39" state="GggGGgrrr"/>
        <phase duration="6"  state="yyyyyyrrr"/>
        <phase duration="39" state="rrrrrrGGG"/>
        <phase duration="6"  state="rrrrrryyy"/>
    </tlLogic>
    <tlLogic id="1027119954" type="static" programID="0" offset="0">
        <phase duration="82" state="GG"/>
        <phase duration="3"  state="yy"/>
        <phase duration="5"  state="rr"/>
    </tlLogic>
    <tlLogic id="1029150768" type="static" programID="0" offset="0">
        <phase duration="82" state="GG"/>
        <phase duration="3"  state="yy"/>
        <phase duration="5"  state="rr"/>
    </tlLogic>
    <tlLogic id="1029150797" type="static" programID="0" offset="0">
        <phase duration="82" state="GG"/>
        <phase duration="3"  state="yy"/>
        <phase duration="5"  state="rr"/>
    </tlLogic>
    <tlLogic id="1029150799" type="static" programID="0" offset="0">
        <phase duration="82" state="GG"/>
        <phase duration="3"  state="yy"/>
        <phase duration="5"  state="rr"/>
    </tlLogic>
    <tlLogic id="1029150848" type="static" programID="0" offset="0">
        <phase duration="80" state="GG"/>
        <phase duration="5"  state="yy"/>
        <phase duration="5"  state="rr"/>
    </tlLogic>
    <tlLogic id="1029150854" type="static" programID="0" offset="0">
        <phase duration="80" state="GG"/>
        <phase duration="5"  state="yy"/>
        <phase duration="5"  state="rr"/>
    </tlLogic>
    <tlLogic id="1029150882" type="static" programID="0" offset="0">
        <phase duration="80" state="GG"/>
        <phase duration="5"  state="yy"/>
        <phase duration="5"  state="rr"/>
    </tlLogic>
    <tlLogic id="1029150886" type="static" programID="0" offset="0">
        <phase duration="82" state="GG"/>
        <phase duration="3"  state="yy"/>
        <phase duration="5"  state="rr"/>
    </tlLogic>
    <tlLogic id="1029150908" type="static" programID="0" offset="0">
        <phase duration="80" state="GG"/>
        <phase duration="5"  state="yy"/>
        <phase duration="5"  state="rr"/>
    </tlLogic>
    <tlLogic id="1029150935" type="static" programID="0" offset="0">
        <phase duration="82" state="GG"/>
        <phase duration="3"  state="yy"/>
        <phase duration="5"  state="rr"/>
    </tlLogic>
    <tlLogic id="1029150977" type="static" programID="0" offset="0">
        <phase duration="80" state="GG"/>
        <phase duration="5"  state="yy"/>
        <phase duration="5"  state="rr"/>
    </tlLogic>
    <tlLogic id="1029151033" type="static" programID="0" offset="0">
        <phase duration="80" state="GG"/>
        <phase duration="5"  state="yy"/>
        <phase duration="5"  state="rr"/>
    </tlLogic>
    <tlLogic id="1037491552" type="static" programID="0" offset="0">
        <phase duration="82" state="GG"/>
        <phase duration="3"  state="yy"/>
        <phase duration="5"  state="rr"/>
    </tlLogic>
    <tlLogic id="1037491831" type="static" programID="0" offset="0">
        <phase duration="82" state="G"/>
        <phase duration="3"  state="y"/>
        <phase duration="5"  state="r"/>
    </tlLogic>
    <tlLogic id="1037491984" type="static" programID="0" offset="0">
        <phase duration="82" state="G"/>
        <phase duration="3"  state="y"/>
        <phase duration="5"  state="r"/>
    </tlLogic>
    <tlLogic id="1037492118" type="static" programID="0" offset="0">
        <phase duration="82" state="G"/>
        <phase duration="3"  state="y"/>
        <phase duration="5"  state="r"/>
    </tlLogic>
    <tlLogic id="1037492147" type="static" programID="0" offset="0">
        <phase duration="82" state="GG"/>
        <phase duration="3"  state="yy"/>
        <phase duration="5"  state="rr"/>
    </tlLogic>
    <tlLogic id="1177464955" type="static" programID="0" offset="0">
        <phase duration="79" state="GG"/>
        <phase duration="6"  state="yy"/>
        <phase duration="5"  state="rr"/>
    </tlLogic>
    <tlLogic id="1177465004" type="static" programID="0" offset="0">
        <phase duration="79" state="GGG"/>
        <phase duration="6"  state="yyy"/>
        <phase duration="5"  state="rrr"/>
    </tlLogic>
    <tlLogic id="1177465043" type="static" programID="0" offset="0">
        <phase duration="82" state="G"/>
        <phase duration="3"  state="y"/>
        <phase duration="5"  state="r"/>
    </tlLogic>
    <tlLogic id="1177465069" type="static" programID="0" offset="0">
        <phase duration="79" state="GG"/>
        <phase duration="6"  state="yy"/>
        <phase duration="5"  state="rr"/>
    </tlLogic>
    <tlLogic id="1177465104" type="static" programID="0" offset="0">
        <phase duration="82" state="G"/>
        <phase duration="3"  state="y"/>
        <phase duration="5"  state="r"/>
    </tlLogic>
    <tlLogic id="1177465144" type="static" programID="0" offset="0">
        <phase duration="79" state="GGG"/>
        <phase duration="6"  state="yyy"/>
        <phase duration="5"  state="rrr"/>
    </tlLogic>
    <tlLogic id="1177465151" type="static" programID="0" offset="0">
        <phase duration="79" state="GG"/>
        <phase duration="6"  state="yy"/>
        <phase duration="5"  state="rr"/>
    </tlLogic>
    <tlLogic id="11841041887" type="static" programID="0" offset="0">
        <phase duration="82" state="GgGg"/>
        <phase duration="3"  state="yyyy"/>
        <phase duration="5"  state="rrrr"/>
    </tlLogic>
    <tlLogic id="11841041888" type="static" programID="0" offset="0">
        <phase duration="82" state="GG"/>
        <phase duration="3"  state="yy"/>
        <phase duration="5"  state="rr"/>
    </tlLogic>
    <tlLogic id="11841041889" type="static" programID="0" offset="0">
        <phase duration="82" state="GG"/>
        <phase duration="3"  state="yy"/>
        <phase duration="5"  state="rr"/>
    </tlLogic>
    <tlLogic id="1327261474" type="static" programID="0" offset="0">
        <phase duration="79" state="GG"/>
        <phase duration="6"  state="yy"/>
        <phase duration="5"  state="rr"/>
    </tlLogic>
    <tlLogic id="1327261703" type="static" programID="0" offset="0">
        <phase duration="79" state="GG"/>
        <phase duration="6"  state="yy"/>
        <phase duration="5"  state="rr"/>
    </tlLogic>
    <tlLogic id="1580653425" type="static" programID="0" offset="0">
        <phase duration="82" state="G"/>
        <phase duration="3"  state="y"/>
        <phase duration="5"  state="r"/>
    </tlLogic>
    <tlLogic id="1829739307" type="static" programID="0" offset="0">
        <phase duration="80" state="GG"/>
        <phase duration="5"  state="yy"/>
        <phase duration="5"  state="rr"/>
    </tlLogic>
    <tlLogic id="1882263691" type="static" programID="0" offset="0">
        <phase duration="42" state="GGgrrrGgg"/>
        <phase duration="3"  state="yyyrrryyy"/>
        <phase duration="42" state="rrrGGGrrr"/>
        <phase duration="3"  state="rrryyyrrr"/>
    </tlLogic>
    <tlLogic id="1882555982" type="static" programID="0" offset="0">
        <phase duration="82" state="G"/>
        <phase duration="3"  state="y"/>
        <phase duration="5"  state="r"/>
    </tlLogic>
    <tlLogic id="1882555987" type="static" programID="0" offset="0">
        <phase duration="82" state="G"/>
        <phase duration="3"  state="y"/>
        <phase duration="5"  state="r"/>
    </tlLogic>
    <tlLogic id="1882555999" type="static" programID="0" offset="0">
        <phase duration="82" state="GG"/>
        <phase duration="3"  state="yy"/>
        <phase duration="5"  state="rr"/>
    </tlLogic>
    <tlLogic id="1882556006" type="static" programID="0" offset="0">
        <phase duration="82" state="GG"/>
        <phase duration="3"  state="yy"/>
        <phase duration="5"  state="rr"/>
    </tlLogic>
    <tlLogic id="207502167" type="static" programID="0" offset="0">
        <phase duration="42" state="GGGGrrr"/>
        <phase duration="3"  state="Gyyyrrr"/>
        <phase duration="42" state="GrrrGGg"/>
        <phase duration="3"  state="Grrryyy"/>
    </tlLogic>
    <tlLogic id="2371362112" type="static" programID="0" offset="0">
        <phase duration="82" state="GG"/>
        <phase duration="3"  state="yy"/>
        <phase duration="5"  state="rr"/>
    </tlLogic>
    <tlLogic id="416426556" type="static" programID="0" offset="0">
        <phase duration="79" state="GGG"/>
        <phase duration="6"  state="yyy"/>
        <phase duration="5"  state="rrr"/>
    </tlLogic>
    <tlLogic id="416426557" type="static" programID="0" offset="0">
        <phase duration="79" state="GG"/>
        <phase duration="6"  state="yy"/>
        <phase duration="5"  state="rr"/>
    </tlLogic>
    <tlLogic id="416427523" type="static" programID="0" offset="0">
        <phase duration="42" state="GgGGrrr"/>
        <phase duration="3"  state="yyyyrrr"/>
        <phase duration="42" state="rrrrGGG"/>
        <phase duration="3"  state="rrrryyy"/>
    </tlLogic>
    <tlLogic id="475222793" type="static" programID="0" offset="0">
        <phase duration="82" state="G"/>
        <phase duration="3"  state="y"/>
        <phase duration="5"  state="r"/>
    </tlLogic>
    <tlLogic id="475407887" type="static" programID="0" offset="0">
        <phase duration="42" state="GgGGrrr"/>
        <phase duration="3"  state="yyyyrrr"/>
        <phase duration="42" state="rrrrGGG"/>
        <phase duration="3"  state="rrrryyy"/>
    </tlLogic>
    <tlLogic id="4996978012" type="static" programID="0" offset="0">
        <phase duration="82" state="GG"/>
        <phase duration="3"  state="yy"/>
        <phase duration="5"  state="rr"/>
    </tlLogic>
    <tlLogic id="4996978013" type="static" programID="0" offset="0">
        <phase duration="82" state="GG"/>
        <phase duration="3"  state="yy"/>
        <phase duration="5"  state="rr"/>
    </tlLogic>
    <tlLogic id="5151606622" type="static" programID="0" offset="0">
        <phase duration="79" state="GGG"/>
        <phase duration="6"  state="yyy"/>
        <phase duration="5"  state="rrr"/>
    </tlLogic>
    <tlLogic id="5194317764" type="static" programID="0" offset="0">
        <phase duration="82" state="GG"/>
        <phase duration="3"  state="yy"/>
        <phase duration="5"  state="rr"/>
    </tlLogic>
    <tlLogic id="5194317766" type="static" programID="0" offset="0">
        <phase duration="82" state="GG"/>
        <phase duration="3"  state="yy"/>
        <phase duration="5"  state="rr"/>
    </tlLogic>
    <tlLogic id="5200284981" type="static" programID="0" offset="0">
        <phase duration="82" state="G"/>
        <phase duration="3"  state="y"/>
        <phase duration="5"  state="r"/>
    </tlLogic>
    <tlLogic id="5964850193" type="static" programID="0" offset="0">
        <phase duration="82" state="GG"/>
        <phase duration="3"  state="yy"/>
        <phase duration="5"  state="rr"/>
    </tlLogic>
    <tlLogic id="5964850195" type="static" programID="0" offset="0">
        <phase duration="82" state="GG"/>
        <phase duration="3"  state="yy"/>
        <phase duration="5"  state="rr"/>
    </tlLogic>
    <tlLogic id="6031784133" type="static" programID="0" offset="0">
        <phase duration="82" state="G"/>
        <phase duration="3"  state="y"/>
        <phase duration="5"  state="r"/>
    </tlLogic>
    <tlLogic id="6031784173" type="static" programID="0" offset="0">
        <phase duration="80" state="GG"/>
        <phase duration="5"  state="yy"/>
        <phase duration="5"  state="rr"/>
    </tlLogic>
    <tlLogic id="60580249" type="static" programID="0" offset="0">
        <phase duration="82" state="G"/>
        <phase duration="3"  state="y"/>
        <phase duration="5"  state="r"/>
    </tlLogic>
    <tlLogic id="60580250" type="static" programID="0" offset="0">
        <phase duration="82" state="G"/>
        <phase duration="3"  state="y"/>
        <phase duration="5"  state="r"/>
    </tlLogic>
    <tlLogic id="812043125" type="static" programID="0" offset="0">
        <phase duration="79" state="G"/>
        <phase duration="6"  state="y"/>
        <phase duration="5"  state="r"/>
    </tlLogic>
    <tlLogic id="GS_3737568543" type="static" programID="0" offset="0">
        <phase duration="27" state="rrrGGGGrrr"/>
        <phase duration="3"  state="rrryyyyrrr"/>
        <phase duration="27" state="rrrrrrrGGG"/>
        <phase duration="3"  state="rrrrrrryyy"/>
        <phase duration="27" state="GGGrrrrrrr"/>
        <phase duration="3"  state="yyyrrrrrrr"/>
    </tlLogic>
    <tlLogic id="joinedS_10139389070_10139389077_1988135286_266354384_#9more" type="static" programID="0" offset="0">
        <phase duration="31" state="GGGrrrrrrGGgrrrGggrrrrrrGggrGGgGGrrrrrrrGGGGrrrrrrrrGGGrrrrrrGGGGrrrrrrrrrrrrGGgrrrrGggGGGrrrrrrGGGGrrrrrrrrrrrrrrrrGGG"/>
        <phase duration="6"  state="yyyrrrrrryyyrrryyyrrrrrryygryyyyGrrrrrrrgyyyrrrrrrrrGGGrrrrrrGGGGrrrrrrrrrrrrGGgrrrrGggyyyrrrrrryyyyrrrrrrrrrrrrrrrrGGG"/>
        <phase duration="31" state="rrrGggGGgrrrGGGrrrrrrrrrrrGGrrrrGGgrrrGggrrrGGrrrrrrGGGrrrrrrGGGGrrrrrrrrrrrrGGgrrrrGggrrrGGGrrrrrrrrrrGGGGrrrrrrrrrGGG"/>
        <phase duration="6"  state="rrrgggGggrrrGyGrrrrrrrrrrryyrrrryyyrrryyyrrrygrrrrrrgggrrrrrrGyyGrrrrrrrrrrrrGggrrrrgggrrrgggrrrrrrrrrrGgggrrrrrrrrrGgg"/>
        <phase duration="31" state="GrGgggGggGggGrGggggGGrrrrrrrrrrrrrrrrrrrrGggrgGrGrrGgggGggGggGrrGgggGggGrGgggGggGrrGgggGrGgggGggGgggGrgGgggGrgGGggrgGgg"/>
        <phase duration="6"  state="yryyyyyyyyyyyryyyyyyGrrrrrrrrrrrrrrrrrrrryyyryyryrryyyyyyyyyyyrryyyyyyyyryyyyyyyyrryyyyyryyyyyyyyyyyyryyyyyyryyyyyryyyy"/>
        <phase duration="31" state="rrrrrrrrrrrrrrrrrrrrGGrrrrrrrrrrrrrrrrrrrrrrrrrrrrrrrrrrrrrrrrrrrrrrrrrrrrrrrrrrrrrrrrrrrrrrrrrrrrrrrrrrrrrrrrrrrrrrrrr"/>
        <phase duration="6"  state="rrrrrrrrrrrrrrrrrrrryyrrrrrrrrrrrrrrrrrrrrrrrrrrrrrrrrrrrrrrrrrrrrrrrrrrrrrrrrrrrrrrrrrrrrrrrrrrrrrrrrrrrrrrrrrrrrrrrrr"/>
        <phase duration="31" state="rrrGggGGgGGgrrrGggrrrrGGrrrrrrrrrrrGGGrrrrrrGGrrrrrrGGGrrrrrrGGGGrrrrrrrrrrrrGGgrrrrGggGGGrrrrrrrrrrrrrrrrrGGGrrrrrrGGG"/>
        <phase duration="6"  state="rrrGggGGgGGgrrrGggrrrryyrrrrrrrrrrryyyrrrrrrGgrrrrrrGGGrrrrrrGGGGrrrrrrrrrrrrGGgrrrrGggGGGrrrrrrrrrrrrrrrrrGGGrrrrrrGGG"/>
        <phase duration="31" state="rrrGggGGgGGgrrrGggrrrrrrGggrGGgrrrrrrrGGGrrrGgGGrrrrGGGrrrrrrGGGGrrrrrrrrrrrrGGgrrrrGggGGGrrrrrrrrrrrrrrrrrGGGrrrrrrGGG"/>
        <phase duration="6"  state="rrrGggGGgGGgrrrGggrrrrrryyyryyyrrrrrrryyyrrrGgyyrrrryyyrrrrrryyyyrrrrrrrrrrrrGGgrrrrGggGGGrrrrrrrrrrrrrrrrrGGGrrrrrrGGG"/>
        <phase duration="31" state="rrrGggGGgGGgrrrGggrrrrGGrrrrrrrGrrrrrrrrrrrrGGrrGGGGrrrrrrrrrrrrrGGGrrrrrrrrrGGgrrrrGggGGGrrrrrrrrrrrrrrrrrGGGrrrrrrGGG"/>
        <phase duration="6"  state="rrryyyyyyyyyrrryyyrrrryyrrrrrrryrrrrrrrrrrrryyrryyyyrrrrrrrrrrrrryyyrrrrrrrrryyyrrrryyyyyyrrrrrrrrrrrrrrrrryyyrrrrrryyy"/>
        <phase duration="31" state="rrrrrrrrrrrrrrrrrrrrrrrrrrrrrrrrrrrrrrrrrrrrrrrrrrrrrrrrrrrrrrrrrrrrrrrGGGrrrrrrrrrrrrrrrrrrrrrrrrrrrrrrrrrrrrrrrrrrrrr"/>
        <phase duration="6"  state="rrrrrrrrrrrrrrrrrrrrrrrrrrrrrrrrrrrrrrrrrrrrrrrrrrrrrrrrrrrrrrrrrrrrrrryyyrrrrrrrrrrrrrrrrrrrrrrrrrrrrrrrrrrrrrrrrrrrrr"/>
        <phase duration="31" state="rrrrrrrrrGGgrrrGggrrrrrrrrrGrrrrrrrrrrrrrrrrGGrrrrrrrrrrrrrrrrrrrrrrrrrrrrrrrrrrGGGGrrrrrrGGGrrrrrrrrrrrrrrrrrrrrrrrGGG"/>
        <phase duration="6"  state="rrrrrrrrrGGgrrrGggrrrrrrrrryrrrrrrrrrrrrrrrrGGrrrrrrrrrrrrrrrrrrrrrrrrrrrrrrrrrryyyyrrrrrryyyrrrrrrrrrrrrrrrrrrrrrrrGGG"/>
        <phase duration="31" state="rrrGggGGgGGgrrrGggrrrrrrGGGrrrrrGGgrrrGggrrrGGrrrrrrGGGrrrrrrGGGGrrrrrrrrrrrrGGgrrrrGggGGGrrrrrrrrrrGGgrrrrGGgrrrrrrGGG"/>
        <phase duration="6"  state="rrryyyyyyGGgrrrGggrrrrrryyyrrrrryyyrrryyyrrrGGrrrrrryyyrrrrrryyyyrrrrrrrrrrrrGGgrrrrGggyyyrrrrrrrrrryyyrrrryyyrrrrrryyy"/>
        <phase duration="31" state="rrrrrrrrrGGgrrrGggrrrrrrrrrGrrrrrrrrrrrrrrrrGGrrrrrrrrrrrrrrrrrrrrrrrrrrrrrrrGGgrrrrGggrrrGGGrrrrrrrrrrrrrrrrrrrrGGGrrr"/>
        <phase duration="6"  state="rrrrrrrrrGGgrrrGggrrrrrrrrryrrrrrrrrrrrrrrrryyrrrrrrrrrrrrrrrrrrrrrrrrrrrrrrrGGgrrrrGggrrryyyrrrrrrrrrrrrrrrrrrrryyyrrr"/>
    </tlLogic>
    <tlLogic id="joinedS_1025295347_1025295435_1025295462_1025295645_#2more" type="static" programID="0" offset="0">
        <phase duration="9"  state="GGGGGrrrrrrrrrrrrrrrrGGGGGgrrrrGggrrGGGrrrrrr"/>
        <phase duration="3"  state="GyyyGrrrrrrrrrrrrrrrrgggGggrrrrgggrrgggrrrrrr"/>
        <phase duration="10" state="GrrrGgggGggrrrGggGrrGgggGggGrrGgggrrgggGggGrG"/>
        <phase duration="3"  state="yrrryyyyyyyrrryyyyrryyyyyyyyrryyyyrryyyyyyyry"/>
        <phase duration="10" state="rrrrrrrrrrrGGGrrrrrrrrrrrrrrrrrrrrrrrrrrrrrrr"/>
        <phase duration="3"  state="rrrrrrrrrrryyyrrrrrrrrrrrrrrrrrrrrrrrrrrrrrrr"/>
        <phase duration="10" state="rrrrrGGGrrrrrrrrrGGGGrrrrrrrrrrrrrrrrrrrrrrrr"/>
        <phase duration="3"  state="rrrrryyyrrrrrrrrryyyyrrrrrrrrrrrrrrrrrrrrrrrr"/>
        <phase duration="10" state="rrrrrrrrrrrrrrrrrrrrrrrrrrrGGGGrrrrrGGGrrrrrr"/>
        <phase duration="3"  state="rrrrrrrrrrrrrrrrrrrrrrrrrrryyyyrrrrryyyrrrrrr"/>
        <phase duration="10" state="rrrrrrrrrrrrrrrrrrrrrrrrrrrrrrrrrrGGrrrrrrrrr"/>
        <phase duration="3"  state="rrrrrrrrrrrrrrrrrrrrrrrrrrrrrrrrrryyrrrrrrrrr"/>
        <phase duration="10" state="rrrrrrrrrrrrrrrrrrrrrrrrrrrrrrrGGGrrrrrrrrGGG"/>
        <phase duration="3"  state="rrrrrrrrrrrrrrrrrrrrrrrrrrrrrrrGggrrrrrrrryyy"/>
    </tlLogic>
    <tlLogic id="joinedS_1025295386_1025295439_1025295444_1025295605_#2more" type="static" programID="0" offset="0">
        <phase duration="9"  state="GGrrrrrrrrrGGGrrrrrrrrrGggGGg"/>
        <phase duration="3"  state="yyrrrrrrrrryyyrrrrrrrrryyyyyy"/>
        <phase duration="10" state="rrGGrrrrrrrrrrrrrrrrrrrrrrrrr"/>
        <phase duration="3"  state="rryyrrrrrrrrrrrrrrrrrrrrrrrrr"/>
        <phase duration="10" state="rrrrGggGrrGgggrrrrGrrrGgggGgg"/>
        <phase duration="3"  state="rrrryyyGrrGyyyrrrryrrrygggyyy"/>
        <phase duration="10" state="rrrrrrrGGGGrrrrrrrrrrrrGGGrrr"/>
        <phase duration="3"  state="rrrrrrryyyyrrrrrrrrrrrryyyrrr"/>
        <phase duration="10" state="rrrrrrrrrrrrrrGGrrrrrrrrrrrrr"/>
        <phase duration="3"  state="rrrrrrrrrrrrrryyrrrrrrrrrrrrr"/>
        <phase duration="10" state="rrrrrrrrrrrrrrrrGGrrrrrrrrrrr"/>
        <phase duration="3"  state="rrrrrrrrrrrrrrrryyrrrrrrrrrrr"/>
        <phase duration="10" state="rrrrrrrrrrrGGGrrrrGGGGGrrrrrr"/>
        <phase duration="3"  state="rrrrrrrrrrrGGGrrrryyyyyrrrrrr"/>
    </tlLogic>
    <tlLogic id="joinedS_1026677693_1026677741_1026677840_1026677865_#4more" type="static" programID="0" offset="0">
        <phase duration="6"  state="GGGGrrrrrrGGgrrrrrrGggrrrrrrrrrGGGGGGrrrrrrGGgrrrGggrrrrrGGGrrrrrr"/>
        <phase duration="3"  state="GyyGrrrrrrGGgrrrrrrGggrrrrrrrrrggggggrrrrrrGggrrrgggrrrrrgggrrrrrr"/>
        <phase duration="6"  state="GrrGgggGggGGggrggrgGggrrrGggGrGggggggGggGrGGggGrGgggGrrGggggGggGrG"/>
        <phase duration="3"  state="yrryyyyyyyyyygrgyryyyyrrryyyyryyyygggyyyyryyyyyryyyyyrryyyyyyyyyry"/>
        <phase duration="6"  state="rrrrrrrrrrrrrGGGrrrrrrrrrrrrrrrrrrGGGrrrrrrrrrrrrrrrrrrrrrrrrrrrrr"/>
        <phase duration="3"  state="rrrrrrrrrrrrryyyrrrrrrrrrrrrrrrrrrGGGrrrrrrrrrrrrrrrrrrrrrrrrrrrrr"/>
        <phase duration="6"  state="rrrrrrrrrrrrrrrrGGGrrrrrrrrrrrrrrrGGGrrrrrrrrrrrrrrrrrrrrrrrrrrrrr"/>
        <phase duration="3"  state="rrrrrrrrrrrrrrrryyyrrrrrrrrrrrrrrryyyrrrrrrrrrrrrrrrrrrrrrrrrrrrrr"/>
        <phase duration="6"  state="rrrrrrrrrrrrrrrrrrrrrrGGGrrrrrrrrrrrrrrrrrrrrrrrrGGGrrrrrGggGGgrrr"/>
        <phase duration="3"  state="rrrrrrrrrrrrrrrrrrrrrryyyrrrrrrrrrrrrrrrrrrrrrrrryyyrrrrryyyyyyrrr"/>
        <phase duration="6"  state="rrrrGGGrrrrrrrrrrrrrrrrrrrrrGGGrrrrrrrrrrrrrrrrrrrrrrrrrrrrrrrrrrr"/>
        <phase duration="3"  state="rrrryyyrrrrrrrrrrrrrrrrrrrrryyyrrrrrrrrrrrrrrrrrrrrrrrrrrrrrrrrrrr"/>
        <phase duration="6"  state="rrrrrrrrrrrrrrrrrrrGGGrrrrrrrrrrrrrrrrrrGGGrrrrrrrrrrrrGGrrrrrrrrr"/>
        <phase duration="3"  state="rrrrrrrrrrrrrrrrrrryyyrrrrrrrrrrrrrrrrrryyyrrrrrrrrrrrryyrrrrrrrrr"/>
        <phase duration="6"  state="rrrrrrrrrrrrrrrrrrrrrrrrrrrrrrrrrrrrrrrrrrrrrrGGGrrrrrrrrGGGrrrrrr"/>
        <phase duration="3"  state="rrrrrrrrrrrrrrrrrrrrrrrrrrrrrrrrrrrrrrrrrrrrrryyyrrrrrrrryyyrrrrrr"/>
        <phase duration="6"  state="rrrrrrrrrrrrrrrrrrrrrrrrrrrrrrrrrrrrrrrrrrrrrrrrrrrrGGGrrrrrrrrrrr"/>
        <phase duration="3"  state="rrrrrrrrrrrrrrrrrrrrrrrrrrrrrrrrrrrrrrrrrrrrrrrrrrrryyyrrrrrrrrrrr"/>
        <phase duration="6"  state="rrrrrrrrrrrrrrrrrrrrrrrrrrrrrrrrrrrrrrrrrrrrrrrrrGGGrrrrrrrrrrrGGG"/>
        <phase duration="3"  state="rrrrrrrrrrrrrrrrrrrrrrrrrrrrrrrrrrrrrrrrrrrrrrrrrGggrrrrrrrrrrryyy"/>
    </tlLogic>
    <tlLogic id="joinedS_1026678024_1026678518_1027006443_1027006463_#3more" type="static" programID="0" offset="0">
        <phase duration="31" state="GggGrrGggggggGggGrrGGrGgggGggGggGrrGgggGggGrGgggGrGgggGggGggGrGggg"/>
        <phase duration="5"  state="yyyGrrGyyyyyyyyyyrryyryyyyyyyyyyyrryyyyyyyyryyyyyryyyyyyyyyyyryyyy"/>
        <phase duration="31" state="rrrGGGGrrrrrrrrrrrrrrrrrrrrrrrrrrrrrrrrrrrrrrrrrrrrrrrrrrrrrrrrrrr"/>
        <phase duration="5"  state="rrryyyyrrrrrrrrrrrrrrrrrrrrrrrrrrrrrrrrrrrrrrrrrrrrrrrrrrrrrrrrrrr"/>
        <phase duration="31" state="rrrrrrrrrrrrrrrrGGGGrrrrrrrrrrrrrrrrrrrrrrrrrrrrrrrrrrrrrrrrrrrrrr"/>
        <phase duration="5"  state="rrrrrrrrrrrrrrrryyyyrrrrrrrrrrrrrrrrrrrrrrrrrrrrrrrrrrrrrrrrrrrrrr"/>
        <phase duration="31" state="rrrrrrrrrrrrrrrrrrrrGGGrrrrrrrrrrrrrrrrrrrrrrrrrrrrrrrrrrrrrrrrGGG"/>
        <phase duration="5"  state="rrrrrrrrrrrrrrrrrrrryyyrrrrrrrrrrrrrrrrrrrrrrrrrrrrrrrrrrrrrrrryyy"/>
        <phase duration="31" state="rrrrrrrrrrrrrrrrrrrrrrrrrrrrrrrrGGGGrrrrrrrrrrrrrrrrrrrrrrrrrrrrrr"/>
        <phase duration="5"  state="rrrrrrrrrrrrrrrrrrrrrrrrrrrrrrrryyyyrrrrrrrrrrrrrrrrrrrrrrrrrrrrrr"/>
        <phase duration="31" state="rrrrrrrrrrrrrrrrrrrrrrrrrrrrrrrrrrrrrrrrrrGGGrrrrrrGGGrrrrrrrrrrrr"/>
        <phase duration="5"  state="rrrrrrrrrrrrrrrrrrrrrrrrrrrrrrrrrrrrrrrrrryyyrrrrrryyyrrrrrrrrrrrr"/>
        <phase duration="31" state="rrrrrrrrrrrrrrrrrrrrrrrrrrrrrrrrrrrrrrrrrrrrrGGGGGGrrrrrrrrrrrrrrr"/>
        <phase duration="5"  state="rrrrrrrrrrrrrrrrrrrrrrrrrrrrrrrrrrrrrrrrrrrrryyyyyyrrrrrrrrrrrrrrr"/>
        <phase duration="31" state="rrrrrrrrrrrrrrrrrrrrrrrGGGrrrrrrrrrrrrrrrrrrrrrrrrrrrrrrrrrrGGGrrr"/>
        <phase duration="5"  state="rrrrrrrrrrrrrrrrrrrrrrrgggrrrrrrrrrrrrrrrrrrrrrrrrrrrrrrrrrrGyGrrr"/>
    </tlLogic>
    <tlLogic id="joinedS_1026678045_1026678180_1026678406_243192645" type="static" programID="0" offset="0">
        <phase duration="9"  state="gggGggGrrGGgggGgggGrGrGggGrrGgggGrgGgggGrgGggg"/>
        <phase duration="6"  state="yyyyyyGrrGyyyyGgggyryryyyyrryyyyyryyyyyyryyyyy"/>
        <phase duration="9"  state="rrrrrrGGGGrrrrGGGGrrrrrrrrrrrrrrrrrrrrrrrrrrrr"/>
        <phase duration="6"  state="rrrrrryyyyrrrryyyyrrrrrrrrrrrrrrrrrrrrrrrrrrrr"/>
        <phase duration="9"  state="GGGrrrrrrrrrrrrrrrGGGGrrrrrrrrrrrrrrrrrrrrrrrr"/>
        <phase duration="6"  state="yyyrrrrrrrrrrrrrrryyyyrrrrrrrrrrrrrrrrrrrrrrrr"/>
        <phase duration="9"  state="rrrrrrrrrrrrrrrrrrrrrrrrrGGGGrrrrrrrrrrrrrrrrr"/>