<?xml version="1.0" encoding="UTF-8"?>

<!-- generated on 2025-04-29 19:26:11 by Eclipse SUMO netconvert Version 1.22.0
<netconvertConfiguration xmlns:xsi="http://www.w3.org/2001/XMLSchema-instance" xsi:noNamespaceSchemaLocation="http://sumo.dlr.de/xsd/netconvertConfiguration.xsd">

    <input>
        <sumo-net-file value="guyancourt/guyancourt.net.xml"/>
    </input>

    <output>
        <plain-output-prefix value="guyancourt/guyancourt"/>
    </output>

    <processing>
        <geometry.min-radius.fix.railways value="false"/>
        <geometry.max-grade.fix value="false"/>
        <offset.disable-normalization value="true"/>
        <lefthand value="0"/>
    </processing>

    <tls_building>
        <tls.ignore-internal-junction-jam value="1"/>
    </tls_building>

    <junctions>
        <no-turnarounds value="true"/>
        <junctions.corner-detail value="5"/>
        <junctions.limit-turn-speed value="5.50"/>
        <rectangular-lane-cut value="0"/>
    </junctions>

    <pedestrian>
        <walkingareas value="0"/>
    </pedestrian>

</netconvertConfiguration>
-->

<nodes version="1.20" xmlns:xsi="http://www.w3.org/2001/XMLSchema-instance" xsi:noNamespaceSchemaLocation="http://sumo.dlr.de/xsd/nodes_file.xsd">
    <location netOffset="-423290.33,-5399599.24" convBoundary="0.00,0.00,11106.42,6206.68" origBoundary="1.875055,48.712523,2.142006,48.801301" projParameter="+proj=utm +zone=31 +ellps=WGS84 +datum=WGS84 +units=m +no_defs"/>

    <node id="10034231785" x="6619.67" y="2746.39" type="dead_end"/>
    <node id="10034231786" x="6640.14" y="2788.91" type="dead_end"/>
    <node id="10048148476" x="6700.09" y="3617.74" type="dead_end"/>
    <node id="10048148477" x="6705.39" y="3591.36" type="dead_end"/>
    <node id="10048148478" x="6709.06" y="3598.70" type="priority"/>
    <node id="10048148479" x="6694.26" y="3605.63" type="dead_end"/>
    <node id="10048148483" x="6724.85" y="3591.68" type="right_before_left"/>
    <node id="10061230303" x="5993.88" y="4129.44" type="dead_end"/>
    <node id="10061230305" x="6104.79" y="4262.13" type="dead_end"/>
    <node id="10061230306" x="6095.36" y="4275.52" type="dead_end"/>
    <node id="10061230307" x="6089.89" y="4283.05" type="priority"/>
    <node id="10066033998" x="9166.30" y="2855.52" type="priority"/>
    <node id="10066033999" x="9141.22" y="2878.51" type="priority"/>
    <node id="10066034001" x="9090.18" y="2925.02" type="priority"/>
    <node id="10066034002" x="9095.41" y="2922.61" type="priority"/>
    <node id="10074093176" x="6654.40" y="4581.95" type="priority"/>
    <node id="10074093177" x="6659.15" y="4585.12" type="priority"/>
    <node id="10074093181" x="6674.72" y="4580.40" type="priority"/>
    <node id="10116050561" x="8207.50" y="5468.93" type="dead_end"/>
    <node id="10139348136" x="8649.15" y="1887.26" type="priority"/>
    <node id="10139348137" x="8642.19" y="1888.61" type="priority"/>
    <node id="10139348187" x="7781.53" y="2668.29" type="priority" fringe="inner">
        <param key="buffer_stop" value="true"/>
    </node>
    <node id="10139348188" x="7750.89" y="2667.87" type="right_before_left"/>
    <node id="10139348190" x="7769.27" y="2663.16" type="priority" fringe="inner">
        <param key="buffer_stop" value="true"/>
    </node>
    <node id="10139348199" x="7512.17" y="3034.00" type="right_before_left"/>
    <node id="10139348200" x="7483.23" y="2981.82" type="right_before_left"/>
    <node id="10139348201" x="7556.00" y="3040.21" type="priority"/>
    <node id="10139348203" x="7591.56" y="2894.11" type="priority"/>
    <node id="10139348206" x="7636.04" y="2978.54" type="priority"/>
    <node id="10139348207" x="7656.68" y="2967.91" type="right_before_left"/>
    <node id="10139348208" x="7663.93" y="2982.72" type="priority"/>
    <node id="10139348209" x="7634.54" y="2084.84" type="priority"/>
    <node id="10139348211" x="7588.39" y="1976.56" type="priority"/>
    <node id="10139348212" x="7568.55" y="2015.39" type="priority"/>
    <node id="10139348213" x="7583.59" y="2004.61" type="right_before_left"/>
    <node id="10139348214" x="7610.93" y="2081.43" type="priority"/>
    <node id="10139348215" x="7626.03" y="2071.44" type="right_before_left"/>
    <node id="10139389064" x="7692.31" y="1752.30" type="priority"/>
    <node id="10139389070" x="7668.51" y="1722.13" type="traffic_light" tl="joinedS_10139389070_10139389077_1988135286_266354384_#9more" controlledInner="-1108126471#0 -22723765 -45850162#0 -531640759#1 -531640759#2 -531640765#1 -531640765#2 -531640765#3 1108126469#1 1108126471#0 1108126472#1 1108126473#1 22723765 45850162#0 531640759#1 531640759#2 531640765#1 531640765#2 531640765#3 698066558#0 698068919#0"/>
    <node id="10139389073" x="7625.03" y="1686.78" type="priority"/>
    <node id="10139389077" x="7646.55" y="1711.94" type="traffic_light" tl="joinedS_10139389070_10139389077_1988135286_266354384_#9more" controlledInner="-1108126471#0 -22723765 -45850162#0 -531640759#1 -531640759#2 -531640765#1 -531640765#2 -531640765#3 1108126469#1 1108126471#0 1108126472#1 1108126473#1 22723765 45850162#0 531640759#1 531640759#2 531640765#1 531640765#2 531640765#3 698066558#0 698068919#0"/>
    <node id="10139389113" x="7645.18" y="1470.32" type="right_before_left"/>
    <node id="10139389165" x="9233.07" y="1647.11" type="priority"/>
    <node id="10139389214" x="9565.40" y="1904.47" type="right_before_left"/>
    <node id="10139389218" x="9690.62" y="1778.21" type="priority"/>
    <node id="10141323710" x="7733.00" y="1628.07" type="right_before_left"/>
    <node id="10141323726" x="7763.75" y="1589.95" type="right_before_left"/>
    <node id="10141323734" x="7671.58" y="1653.83" type="right_before_left"/>
    <node id="10141323751" x="7812.95" y="1558.20" type="priority"/>
    <node id="10141323759" x="7837.81" y="1567.53" type="right_before_left"/>
    <node id="10141323760" x="7841.37" y="1576.17" type="right_before_left"/>
    <node id="10141323779" x="7798.16" y="1582.43" type="priority"/>
    <node id="10141323785" x="7788.42" y="1471.68" type="priority"/>
    <node id="10141323800" x="7810.69" y="1496.34" type="priority"/>
    <node id="10141323809" x="7796.70" y="1454.33" type="right_before_left"/>
    <node id="10141323812" x="7807.26" y="1419.74" type="right_before_left"/>
    <node id="10141323814" x="7813.60" y="1402.77" type="priority"/>
    <node id="10141323823" x="7520.65" y="1510.96" type="priority"/>
    <node id="10141323824" x="7502.38" y="1508.68" type="right_before_left"/>
    <node id="10141323825" x="7483.56" y="1503.22" type="priority"/>
    <node id="10141323831" x="7517.12" y="1699.91" type="priority"/>
    <node id="10141323849" x="7790.27" y="1897.10" type="right_before_left"/>
    <node id="10141323859" x="7881.28" y="1827.24" type="priority"/>
    <node id="10141323863" x="7892.25" y="1808.77" type="priority"/>
    <node id="10141323864" x="7893.90" y="1815.87" type="priority"/>
    <node id="10141323865" x="7888.36" y="1815.23" type="priority"/>
    <node id="10141323875" x="7944.57" y="1664.36" type="priority"/>
    <node id="10141323906" x="7635.02" y="1937.79" type="dead_end"/>
    <node id="10141323918" x="7259.76" y="1970.75" type="dead_end"/>
    <node id="10141323919" x="7242.43" y="1981.55" type="dead_end"/>
    <node id="10141323920" x="7349.85" y="1912.15" type="dead_end"/>
    <node id="10141323940" x="8147.67" y="1766.25" type="priority"/>
    <node id="10141323941" x="8144.54" y="1749.99" type="priority"/>
    <node id="10141323953" x="9021.03" y="2728.15" type="priority"/>
    <node id="10141323955" x="9089.09" y="2764.64" type="priority"/>
    <node id="10141323956" x="9094.05" y="2768.35" type="priority"/>
    <node id="10141323957" x="9112.19" y="2784.96" type="priority"/>
    <node id="10141323958" x="9109.79" y="2782.63" type="priority"/>
    <node id="10173984402" x="6173.13" y="4498.14" type="priority"/>
    <node id="10173984409" x="6798.63" y="4874.89" type="priority"/>
    <node id="1018521767" x="5628.34" y="4878.83" type="priority"/>
    <node id="1018521785" x="6355.60" y="4965.92" type="priority"/>
    <node id="1018521810" x="5187.01" y="4891.42" type="priority"/>
    <node id="1018521818" x="6382.02" y="4802.73" type="dead_end"/>
    <node id="1018521875" x="5620.03" y="4884.52" type="priority"/>
    <node id="1018522068" x="4848.25" y="4858.20" type="priority"/>
    <node id="1018522102" x="4692.65" y="4950.93" type="priority"/>
    <node id="1018522163" x="4856.69" y="4943.20" type="right_before_left"/>
    <node id="1018522446" x="5034.77" y="4897.43" type="right_before_left"/>
    <node id="1018659872" x="6122.94" y="4789.53" type="dead_end"/>
    <node id="1018659917" x="6149.56" y="4840.33" type="priority"/>
    <node id="1018659937" x="6439.21" y="4922.40" type="dead_end"/>
    <node id="1018660027" x="6184.03" y="4797.22" type="dead_end"/>
    <node id="1018660051" x="6292.30" y="4509.70" type="priority"/>
    <node id="1018660133" x="6435.81" y="4908.53" type="dead_end"/>
    <node id="1018660186" x="6202.80" y="4512.79" type="priority"/>
    <node id="1018660190" x="5946.70" y="4877.11" type="priority"/>
    <node id="1018660233" x="6345.19" y="4824.91" type="dead_end"/>
    <node id="1018660305" x="6817.77" y="4894.17" type="priority"/>
    <node id="1018660427" x="6387.08" y="4578.70" type="priority"/>
    <node id="1018660667" x="6421.63" y="4720.95" type="priority"/>
    <node id="1018660675" x="6592.26" y="4649.13" type="priority"/>
    <node id="1018660717" x="6133.82" y="4638.07" type="priority"/>
    <node id="1018660753" x="6439.54" y="4919.27" type="dead_end"/>
    <node id="1018660768" x="6825.71" y="4574.15" type="priority"/>
    <node id="1018660834" x="6130.08" y="4635.19" type="priority"/>
    <node id="1018660843" x="6479.63" y="4566.57" type="priority"/>
    <node id="1018660967" x="6339.46" y="4841.28" type="dead_end"/>
    <node id="1018660969" x="6434.26" y="4905.88" type="dead_end"/>
    <node id="1018660971" x="6711.64" y="4714.52" type="priority"/>
    <node id="1018661004" x="6717.55" y="4719.08" type="traffic_light" tl="1018661004"/>
    <node id="1018661015" x="6390.47" y="4574.50" type="priority"/>
    <node id="1018661270" x="6726.95" y="4827.40" type="priority"/>
    <node id="1018661323" x="6424.68" y="4823.93" type="priority"/>
    <node id="1018661331" x="6171.82" y="4804.70" type="dead_end"/>
    <node id="1018661333" x="6124.40" y="4730.27" type="priority"/>
    <node id="1018661376" x="6719.95" y="4742.46" type="priority"/>
    <node id="1018661472" x="6198.85" y="4364.96" type="priority"/>
    <node id="1018661533" x="6400.83" y="4796.10" type="priority"/>
    <node id="1018661565" x="6708.56" y="4730.82" type="priority"/>
    <node id="1018661587" x="6123.79" y="4630.36" type="priority"/>
    <node id="1018661814" x="6248.90" y="4490.03" type="priority"/>
    <node id="1018661864" x="6452.67" y="4975.88" type="dead_end"/>
    <node id="1018662037" x="6383.23" y="4502.70" type="priority"/>
    <node id="1018662045" x="6119.56" y="4627.10" type="right_before_left"/>
    <node id="1018662052" x="6350.42" y="4552.05" type="priority"/>
    <node id="1018662236" x="6820.80" y="4888.11" type="priority"/>
    <node id="1018662265" x="6182.84" y="4803.28" type="dead_end"/>
    <node id="1018662337" x="6274.70" y="4438.12" type="priority"/>
    <node id="1018662666" x="6125.50" y="4769.82" type="dead_end"/>
    <node id="1018662834" x="6103.57" y="4364.41" type="priority"/>
    <node id="1018663074" x="6157.14" y="4831.09" type="dead_end"/>
    <node id="1018663116" x="6268.36" y="4433.30" type="priority"/>
    <node id="1018663204" x="6810.21" y="4595.53" type="traffic_light" tl="1018663204"/>
    <node id="1018663214" x="6804.25" y="4591.34" type="traffic_light" tl="1018663214"/>
    <node id="1018663242" x="6729.84" y="4822.67" type="priority"/>
    <node id="1018663262" x="6353.60" y="4547.61" type="priority"/>
    <node id="1018663303" x="6837.90" y="4583.18" type="traffic_light" tl="1018663303"/>
    <node id="1018663333" x="6394.70" y="4487.61" type="traffic_light" tl="1018663333"/>
    <node id="1018663367" x="6394.76" y="4795.10" type="priority"/>
    <node id="1018663417" x="6892.34" y="4946.67" type="priority"/>
    <node id="1018663479" x="6466.11" y="4854.56" type="dead_end"/>
    <node id="1018663485" x="6295.99" y="4505.24" type="priority"/>
    <node id="1018735808" x="6706.25" y="4511.66" type="traffic_light" tl="1018735808"/>
    <node id="1018735820" x="6735.70" y="4495.16" type="traffic_light" tl="1018735820"/>
    <node id="1018735826" x="6550.66" y="4348.34" type="dead_end"/>
    <node id="1018735827" x="6703.38" y="4741.90" type="right_before_left"/>
    <node id="1018735828" x="6542.52" y="4356.11" type="traffic_light" tl="1018735828"/>
    <node id="1018735830" x="6814.55" y="4553.28" type="traffic_light" tl="1018735830"/>
    <node id="1018735837" x="6698.73" y="4482.65" type="traffic_light" tl="1018735837"/>
    <node id="1018735845" x="6699.94" y="4747.74" type="priority"/>
    <node id="1018735849" x="6542.94" y="4383.04" type="traffic_light" tl="1018735849"/>
    <node id="1018735852" x="6046.99" y="4330.09" type="priority"/>
    <node id="1018735854" x="6745.18" y="4482.35" type="dead_end"/>
    <node id="1018735857" x="6881.52" y="4887.36" type="right_before_left"/>
    <node id="1018735860" x="6706.14" y="4472.40" type="traffic_light" tl="1018735860"/>
    <node id="1018735864" x="6547.04" y="4349.63" type="dead_end"/>
    <node id="1018735874" x="6561.46" y="4351.65" type="traffic_light" tl="1018735874"/>
    <node id="1018735879" x="6607.27" y="4649.75" type="traffic_light" tl="1018735879"/>
    <node id="1018735883" x="6424.67" y="4268.83" type="priority"/>
    <node id="1018735885" x="6728.02" y="4505.25" type="traffic_light" tl="1018735885"/>
    <node id="1018735887" x="6577.83" y="4647.50" type="priority"/>
    <node id="1018735890" x="6536.06" y="4378.58" type="dead_end"/>
    <node id="1018735892" x="6832.18" y="4565.68" type="priority"/>
    <node id="1018735901" x="6708.82" y="4750.32" type="priority"/>
    <node id="1018735903" x="6733.24" y="4508.86" type="priority"/>
    <node id="1018735919" x="6749.43" y="4474.91" type="dead_end"/>
    <node id="1018735920" x="6834.88" y="4848.52" type="right_before_left"/>
    <node id="1018735928" x="6808.39" y="4562.01" type="traffic_light" tl="1018735928"/>
    <node id="1018735930" x="6573.81" y="4365.51" type="dead_end"/>
    <node id="1018735933" x="6747.55" y="4762.85" type="priority"/>
    <node id="1018735938" x="6546.05" y="4627.93" type="right_before_left"/>
    <node id="1018735955" x="6632.13" y="4425.41" type="priority"/>
    <node id="1018735957" x="6747.34" y="4477.56" type="dead_end"/>
    <node id="1018735960" x="6854.28" y="4528.95" type="priority"/>
    <node id="1018735967" x="6712.08" y="4746.52" type="priority"/>
    <node id="1018735974" x="6566.00" y="4354.69" type="traffic_light" tl="1018735974"/>
    <node id="1018735977" x="6538.67" y="4361.39" type="traffic_light" tl="1018735977"/>
    <node id="1018735981" x="6847.04" y="4545.55" type="traffic_light" tl="1018735981"/>
    <node id="1018735985" x="6733.70" y="4752.64" type="priority"/>
    <node id="1018735986" x="6551.75" y="4389.63" type="dead_end"/>
    <node id="1018735989" x="6420.40" y="4274.90" type="priority"/>
    <node id="1018735999" x="6842.05" y="4542.16" type="traffic_light" tl="1018735999"/>
    <node id="1018736003" x="6573.11" y="4360.00" type="priority"/>
    <node id="10204738267" x="7620.62" y="2096.31" type="priority"/>
    <node id="10204738268" x="7578.76" y="2120.46" type="right_before_left"/>
    <node id="10204738269" x="7563.95" y="2129.70" type="right_before_left"/>
    <node id="10204738271" x="7545.72" y="2070.44" type="right_before_left"/>
    <node id="1020933252" x="6572.08" y="4700.03" type="dead_end"/>
    <node id="1020933257" x="6563.32" y="4713.49" type="dead_end"/>
    <node id="1020933259" x="6508.06" y="4672.93" type="dead_end"/>
    <node id="1020933260" x="6520.08" y="4664.52" type="dead_end"/>
    <node id="1020933275" x="6516.72" y="4641.05" type="dead_end"/>
    <node id="1020933278" x="6521.21" y="4662.96" type="dead_end"/>
    <node id="1020933280" x="6540.11" y="4656.69" type="dead_end"/>
    <node id="1020933281" x="6529.96" y="4651.42" type="dead_end"/>
    <node id="1020933303" x="6531.23" y="4649.74" type="dead_end"/>
    <node id="1020933318" x="6507.99" y="4652.91" type="dead_end"/>
    <node id="1020933320" x="6518.22" y="4639.01" type="dead_end"/>
    <node id="1020933322" x="6530.68" y="4669.43" type="dead_end"/>
    <node id="1020933326" x="6532.12" y="4648.55" type="dead_end"/>
    <node id="1020933339" x="6507.12" y="4654.31" type="dead_end"/>
    <node id="1020933344" x="6523.45" y="4684.64" type="dead_end"/>
    <node id="1020933346" x="6496.02" y="4666.84" type="dead_end"/>
    <node id="1020933347" x="6526.03" y="4648.23" type="dead_end"/>
    <node id="1020933349" x="6516.42" y="4661.47" type="dead_end"/>
    <node id="1020933350" x="6497.28" y="4665.14" type="dead_end"/>
    <node id="1020933363" x="6506.75" y="4674.66" type="dead_end"/>
    <node id="10219524260" x="7840.36" y="1491.50" type="right_before_left"/>
    <node id="10250914038" x="7456.87" y="1823.05" type="dead_end"/>
    <node id="10250914048" x="7565.56" y="1765.33" type="priority"/>
    <node id="10250914055" x="7474.63" y="1851.03" type="dead_end"/>
    <node id="10250914056" x="7471.94" y="1856.29" type="dead_end"/>
    <node id="10250914057" x="7461.36" y="1863.23" type="dead_end"/>
    <node id="10250914063" x="7491.57" y="1910.43" type="priority"/>
    <node id="10250914066" x="7519.13" y="1952.45" type="priority"/>
    <node id="10250914067" x="7542.73" y="1988.55" type="dead_end"/>
    <node id="10250914068" x="7537.13" y="1979.97" type="dead_end"/>
    <node id="10250914069" x="7547.19" y="1972.55" type="dead_end"/>
    <node id="10250914071" x="7554.93" y="1972.68" type="dead_end"/>
    <node id="10250914073" x="7546.19" y="1992.65" type="dead_end"/>
    <node id="10250914074" x="7436.95" y="1835.35" type="dead_end"/>
    <node id="10250949426" x="7222.04" y="1882.31" type="dead_end"/>
    <node id="10250949429" x="7275.00" y="1895.72" type="priority"/>
    <node id="10250949433" x="7282.17" y="1835.70" type="priority"/>
    <node id="10250949434" x="7302.89" y="1822.95" type="priority"/>
    <node id="10250949435" x="7198.09" y="1891.10" type="priority"/>
    <node id="10250949436" x="7227.72" y="1873.27" type="priority"/>
    <node id="10250949437" x="7215.76" y="1880.47" type="right_before_left"/>
    <node id="10250949438" x="7226.77" y="1896.93" type="priority"/>
    <node id="10250949439" x="7219.37" y="1878.30" type="priority"/>
    <node id="10250949447" x="7319.12" y="1938.99" type="dead_end"/>
    <node id="10250949449" x="7328.14" y="1930.61" type="dead_end"/>
    <node id="10250949450" x="7336.56" y="1925.33" type="dead_end"/>
    <node id="10250949453" x="7351.94" y="1914.93" type="dead_end"/>
    <node id="10250949454" x="7323.68" y="1924.89" type="dead_end"/>
    <node id="10250949455" x="7343.92" y="1920.41" type="dead_end"/>
    <node id="10250949456" x="7340.66" y="1914.12" type="dead_end"/>
    <node id="10250949468" x="7355.08" y="1886.44" type="dead_end"/>
    <node id="10250949474" x="7331.97" y="1919.69" type="dead_end"/>
    <node id="10250949475" x="7285.06" y="1833.91" type="right_before_left"/>
    <node id="10250949476" x="7296.22" y="1851.79" type="priority"/>
    <node id="10250949477" x="7294.80" y="1810.47" type="priority"/>
    <node id="10250949478" x="7262.41" y="1831.18" type="priority"/>
    <node id="10250950177" x="7590.82" y="1957.42" type="priority"/>
    <node id="10250950182" x="7508.14" y="1828.84" type="dead_end"/>
    <node id="10250950185" x="7587.34" y="1952.50" type="dead_end"/>
    <node id="10250950187" x="7581.40" y="2048.04" type="priority"/>
    <node id="10250950190" x="7614.01" y="2100.12" type="priority"/>
    <node id="1025295292" x="6187.26" y="3857.65" type="priority"/>
    <node id="1025295305" x="6178.53" y="3896.05" type="priority"/>
    <node id="1025295308" x="6401.08" y="3874.35" type="priority"/>
    <node id="1025295339" x="6412.96" y="4462.39" type="priority"/>
    <node id="1025295341" x="6414.23" y="3866.79" type="priority"/>
    <node id="1025295343" x="6248.90" y="3921.91" type="priority"/>
    <node id="1025295346" x="6234.79" y="3907.88" type="right_before_left"/>
    <node id="1025295347" x="6198.86" y="3980.06" type="traffic_light" tl="joinedS_1025295347_1025295435_1025295462_1025295645_#2more" controlledInner="-1241044220#1 -88257987#1 1241044220#1 88257987#1"/>
    <node id="1025295348" x="6431.09" y="3850.67" type="priority"/>
    <node id="1025295349" x="6241.22" y="3912.39" type="right_before_left"/>
    <node id="1025295353" x="6288.37" y="4223.28" type="priority"/>
    <node id="1025295358" x="6315.99" y="3816.85" type="priority"/>
    <node id="1025295374" x="6328.70" y="4266.70" type="priority"/>
    <node id="1025295386" x="6250.60" y="4178.45" type="traffic_light" tl="joinedS_1025295386_1025295439_1025295444_1025295605_#2more" controlledInner="-1279013926#1 1279013926#1"/>
    <node id="1025295403" x="6225.21" y="3921.15" type="priority"/>
    <node id="1025295413" x="6471.66" y="3772.52" type="priority"/>
    <node id="1025295417" x="6221.04" y="3958.71" type="priority"/>
    <node id="1025295419" x="6243.87" y="3934.33" type="priority"/>
    <node id="1025295435" x="6197.08" y="3937.36" type="traffic_light" tl="joinedS_1025295347_1025295435_1025295462_1025295645_#2more" controlledInner="-1241044220#1 -88257987#1 1241044220#1 88257987#1"/>
    <node id="1025295437" x="6217.25" y="3895.56" type="right_before_left"/>
    <node id="1025295439" x="6224.59" y="4212.78" type="traffic_light" tl="joinedS_1025295386_1025295439_1025295444_1025295605_#2more" controlledInner="-1279013926#1 1279013926#1"/>
    <node id="1025295444" x="6266.21" y="4206.81" type="traffic_light" tl="joinedS_1025295386_1025295439_1025295444_1025295605_#2more" controlledInner="-1279013926#1 1279013926#1"/>
    <node id="1025295450" x="6333.51" y="3896.73" type="priority"/>
    <node id="1025295452" x="6218.54" y="3971.32" type="right_before_left"/>
    <node id="1025295454" x="6307.72" y="3796.42" type="priority"/>
    <node id="1025295462" x="6212.81" y="3973.78" type="traffic_light" tl="joinedS_1025295347_1025295435_1025295462_1025295645_#2more" controlledInner="-1241044220#1 -88257987#1 1241044220#1 88257987#1"/>
    <node id="1025295484" x="6418.66" y="3859.95" type="priority"/>
    <node id="1025295487" x="6184.06" y="3878.48" type="right_before_left"/>
    <node id="1025295491" x="6207.27" y="3908.68" type="priority"/>
    <node id="1025295500" x="6397.30" y="4289.68" type="priority"/>
    <node id="1025295521" x="6356.79" y="3884.25" type="priority"/>
    <node id="1025295536" x="6175.99" y="3889.92" type="priority"/>
    <node id="1025295540" x="6335.53" y="4257.51" type="priority"/>
    <node id="1025295549" x="6412.83" y="3862.94" type="priority"/>
    <node id="1025295551" x="6194.66" y="3877.66" type="priority"/>
    <node id="1025295559" x="6359.94" y="3891.75" type="priority"/>
    <node id="1025295567" x="6192.74" y="3982.92" type="priority"/>
    <node id="1025295573" x="6344.76" y="3883.28" type="priority"/>
    <node id="1025295597" x="6231.39" y="3925.44" type="priority"/>
    <node id="1025295601" x="6234.87" y="3928.05" type="priority"/>
    <node id="1025295604" x="6301.40" y="3810.10" type="priority"/>
    <node id="1025295605" x="6233.93" y="4219.71" type="traffic_light" tl="joinedS_1025295386_1025295439_1025295444_1025295605_#2more" controlledInner="-1279013926#1 1279013926#1"/>
    <node id="1025295621" x="6188.30" y="3956.64" type="priority"/>
    <node id="1025295629" x="6247.13" y="3932.13" type="priority"/>
    <node id="1025295645" x="6218.81" y="3953.46" type="traffic_light" tl="joinedS_1025295347_1025295435_1025295462_1025295645_#2more" controlledInner="-1241044220#1 -88257987#1 1241044220#1 88257987#1"/>
    <node id="1025295646" x="6336.66" y="3903.86" type="priority"/>
    <node id="1025295648" x="6321.90" y="3801.10" type="priority"/>
    <node id="1025295654" x="6354.54" y="4271.51" type="priority"/>
    <node id="1025295656" x="6260.36" y="4185.01" type="traffic_light" tl="joinedS_1025295386_1025295439_1025295444_1025295605_#2more" controlledInner="-1279013926#1 1279013926#1"/>
    <node id="1025295671" x="6194.38" y="3901.42" type="right_before_left"/>
    <node id="1025295675" x="6283.45" y="3916.42" type="priority"/>
    <node id="1025295683" x="6434.96" y="3843.49" type="priority"/>
    <node id="1025295693" x="6182.15" y="3943.00" type="traffic_light" tl="joinedS_1025295347_1025295435_1025295462_1025295645_#2more" controlledInner="-1241044220#1 -88257987#1 1241044220#1 88257987#1"/>
    <node id="1025295696" x="6260.23" y="4215.13" type="traffic_light" tl="joinedS_1025295386_1025295439_1025295444_1025295605_#2more" controlledInner="-1279013926#1 1279013926#1"/>
    <node id="1025295699" x="6355.14" y="3904.39" type="priority"/>
    <node id="10261303365" x="8347.58" y="3522.58" type="priority"/>
    <node id="10261303367" x="8359.47" y="3538.98" type="priority"/>
    <node id="10261303368" x="8357.97" y="3537.07" type="priority"/>
    <node id="10261337533" x="7532.51" y="4341.81" type="priority"/>
    <node id="1026677470" x="5310.50" y="3802.73" type="priority"/>
    <node id="1026677496" x="5554.74" y="3656.48" type="priority"/>
    <node id="1026677502" x="5837.56" y="3185.46" type="priority"/>
    <node id="1026677511" x="5895.20" y="3171.46" type="priority"/>
    <node id="1026677525" x="6390.35" y="3363.10" type="priority"/>
    <node id="1026677530" x="6183.19" y="3317.93" type="priority"/>
    <node id="1026677549" x="5479.28" y="3638.98" type="priority"/>
    <node id="1026677584" x="6537.43" y="3688.00" type="priority"/>
    <node id="1026677589" x="6337.09" y="3263.01" type="traffic_light" tl="1026677589"/>
    <node id="1026677594" x="6206.71" y="3459.18" type="priority"/>
    <node id="1026677600" x="5390.05" y="3849.88" type="priority"/>
    <node id="1026677614" x="6289.06" y="3297.74" type="priority"/>
    <node id="1026677616" x="6397.95" y="3730.42" type="priority"/>
    <node id="1026677665" x="5145.30" y="3821.62" type="priority"/>
    <node id="1026677681" x="5150.70" y="3835.72" type="priority"/>
    <node id="1026677684" x="5942.07" y="3472.19" type="priority"/>
    <node id="1026677693" x="5884.87" y="3201.10" type="traffic_light" tl="joinedS_1026677693_1026677741_1026677840_1026677865_#4more" controlledInner="-829564928#1 -88384475#1 -88384475#5 829564928#1 88384475#1 88384475#5"/>
    <node id="1026677706" x="6582.50" y="3658.30" type="right_before_left"/>
    <node id="1026677707" x="6362.04" y="3366.99" type="priority"/>
    <node id="1026677715" x="5410.64" y="3676.52" type="priority"/>
    <node id="1026677734" x="5908.62" y="3192.86" type="right_before_left"/>
    <node id="1026677739" x="6080.18" y="3655.18" type="right_before_left"/>
    <node id="1026677741" x="5864.84" y="3183.56" type="traffic_light" tl="joinedS_1026677693_1026677741_1026677840_1026677865_#4more" controlledInner="-829564928#1 -88384475#1 -88384475#5 829564928#1 88384475#1 88384475#5"/>
    <node id="1026677754" x="6193.44" y="3465.26" type="priority"/>
    <node id="1026677799" x="6306.56" y="3650.88" type="priority"/>
    <node id="1026677833" x="4841.92" y="4041.21" type="priority"/>
    <node id="1026677840" x="5884.12" y="3140.72" type="traffic_light" tl="joinedS_1026677693_1026677741_1026677840_1026677865_#4more" controlledInner="-829564928#1 -88384475#1 -88384475#5 829564928#1 88384475#1 88384475#5"/>
    <node id="1026677844" x="5202.99" y="3837.76" type="priority"/>
    <node id="1026677865" x="5902.12" y="3195.07" type="traffic_light" tl="joinedS_1026677693_1026677741_1026677840_1026677865_#4more" controlledInner="-829564928#1 -88384475#1 -88384475#5 829564928#1 88384475#1 88384475#5"/>
    <node id="1026677871" x="6325.95" y="3643.77" type="priority"/>
    <node id="1026677884" x="6562.08" y="3165.20" type="traffic_light" tl="1026677884"/>
    <node id="1026677919" x="5949.52" y="3395.33" type="priority"/>
    <node id="1026677921" x="6341.93" y="3676.84" type="priority"/>
    <node id="1026677933" x="5861.45" y="3172.79" type="traffic_light" tl="joinedS_1026677693_1026677741_1026677840_1026677865_#4more" controlledInner="-829564928#1 -88384475#1 -88384475#5 829564928#1 88384475#1 88384475#5"/>
    <node id="1026677947" x="6519.16" y="3183.57" type="priority"/>
    <node id="1026677958" x="6378.16" y="3352.64" type="priority"/>
    <node id="1026677982" x="6732.24" y="3767.24" type="dead_end"/>
    <node id="1026677984" x="6345.83" y="3657.49" type="priority"/>
    <node id="1026677985" x="6328.05" y="3267.36" type="priority"/>
    <node id="1026677994" x="6715.44" y="3903.76" type="dead_end"/>
    <node id="1026678006" x="4725.81" y="4031.30" type="dead_end"/>
    <node id="1026678021" x="6113.15" y="3599.65" type="priority"/>
    <node id="1026678024" x="6568.57" y="3174.76" type="traffic_light" tl="joinedS_1026678024_1026678518_1027006443_1027006463_#3more" controlledInner="-1295986443#1 -527574300#5 1295986443#1 527574300#5"/>
    <node id="1026678045" x="6280.06" y="3276.57" type="traffic_light" tl="joinedS_1026678045_1026678180_1026678406_243192645" controlledInner="-88384491#1 88384491#1"/>
    <node id="1026678096" x="6148.81" y="3537.44" type="priority"/>
    <node id="1026678117" x="5965.30" y="3386.29" type="traffic_light" tl="1026678117"/>
    <node id="1026678150" x="6341.28" y="3376.05" type="priority"/>
    <node id="1026678177" x="6254.83" y="3711.75" type="priority"/>