<edges xmlns:xsi="http://www.w3.org/2001/XMLSchema-instance" version="1.20" xsi:noNamespaceSchemaLocation="http://sumo.dlr.de/xsd/edges_file.xsd">
    <location netOffset="-423290.33,-5399599.24" convBoundary="0.00,0.00,11106.42,6206.68" origBoundary="1.875055,48.712523,2.142006,48.801301" projParameter="+proj=utm +zone=31 +ellps=WGS84 +datum=WGS84 +units=m +no_defs" />

    <edge id="-1005531922#0" from="10944324255" to="243884393" priority="10" type="highway.tertiary" numLanes="1" speed="22.22" shape="6828.47,1285.89 6834.61,1299.64 6871.02,1381.07 6876.48,1388.03 6882.52,1391.05" disallow="tram rail_urban rail rail_electric rail_fast ship container cable_car subway aircraft wheelchair scooter drone" />
    <edge id="-1005531922#1" from="243820376" to="10944324255" priority="10" type="highway.tertiary" numLanes="1" speed="22.22" shape="6813.66,1254.08 6824.33,1276.62 6828.47,1285.89" disallow="tram rail_urban rail rail_electric rail_fast ship container cable_car subway aircraft wheelchair scooter drone" />
    <edge id="-1013993612#0" from="4188140474" to="1834642393" priority="3" type="highway.residential" numLanes="1" speed="13.89" shape="5841.49,1333.61 5846.56,1333.12 5847.78,1345.79 5842.39,1346.30" disallow="tram rail_urban rail rail_electric rail_fast ship container cable_car subway aircraft wheelchair scooter drone" />
    <edge id="-1013993612#1" from="1834642393" to="4188140474" priority="3" type="highway.residential" numLanes="1" speed="13.89" shape="5842.39,1346.30 5837.42,1346.78 5836.20,1334.12 5841.49,1333.61" disallow="tram rail_urban rail rail_electric rail_fast ship container cable_car subway aircraft wheelchair scooter drone" />
    <edge id="-101994840#1" from="243190977" to="243190978" priority="3" type="highway.residential" numLanes="1" speed="13.89" shape="6499.26,2010.37 6480.94,1984.57 6474.89,1973.57 6470.48,1961.60 6467.83,1950.17 6466.64,1939.58 6466.35,1936.88 6470.03,1909.83" disallow="tram rail_urban rail rail_electric rail_fast ship container cable_car subway aircraft wheelchair scooter drone" />
    <edge id="-1025146115#0" from="345771367" to="9452408615" priority="4" type="highway.unclassified" numLanes="1" speed="13.89" shape="10154.20,4467.30 10158.01,4471.16 10162.90,4473.50 10168.30,4474.07 10173.58,4472.81 10178.12,4469.84 10181.41,4465.52 10183.04,4460.37 10182.84,4454.95 10180.83,4449.92" disallow="tram rail_urban rail rail_electric rail_fast ship container cable_car subway aircraft wheelchair scooter drone" />
    <edge id="-1025146115#1" from="9452408608" to="345771367" priority="4" type="highway.unclassified" numLanes="1" speed="13.89" shape="10152.33,4452.72 10151.35,4457.70 10151.99,4462.74 10154.20,4467.30" disallow="tram rail_urban rail rail_electric rail_fast ship container cable_car subway aircraft wheelchair scooter drone" />
    <edge id="-1025146115#2" from="9452408611" to="9452408608" priority="4" type="highway.unclassified" numLanes="1" speed="13.89" shape="10163.21,4442.88 10158.58,4444.93 10154.82,4448.32 10152.33,4452.72" disallow="tram rail_urban rail rail_electric rail_fast ship container cable_car subway aircraft wheelchair scooter drone" />
    <edge id="-1025146115#3" from="9452408615" to="9452408611" priority="4" type="highway.unclassified" numLanes="1" speed="13.89" shape="10180.83,4449.92 10177.53,4446.10 10173.19,4443.50 10168.25,4442.39 10163.21,4442.88" disallow="tram rail_urban rail rail_electric rail_fast ship container cable_car subway aircraft wheelchair scooter drone" />
    <edge id="-1025146116" from="9452408611" to="9452409118" priority="4" type="highway.unclassified" numLanes="1" speed="13.89" disallow="tram rail_urban rail rail_electric rail_fast ship container cable_car subway aircraft wheelchair scooter drone" />
    <edge id="-1025146117" from="9452409121" to="9452408615" priority="4" type="highway.unclassified" numLanes="1" speed="13.89" shape="10626.24,4341.41 10595.61,4349.31 10180.83,4449.92" disallow="tram rail_urban rail rail_electric rail_fast ship container cable_car subway aircraft wheelchair scooter drone" />
    <edge id="-1025146119#0" from="9452409136" to="9452408608" priority="4" type="highway.unclassified" numLanes="1" speed="13.89" shape="10087.53,4469.84 10145.65,4455.64 10152.33,4452.72" disallow="tram rail_urban rail rail_electric rail_fast ship container cable_car subway aircraft wheelchair scooter drone" />
    <edge id="-1025146119#1" from="9452409123" to="9452409136" priority="4" type="highway.unclassified" numLanes="1" speed="13.89" shape="9916.12,4510.37 9931.50,4508.14 10087.53,4469.84" disallow="tram rail_urban rail rail_electric rail_fast ship container cable_car subway aircraft wheelchair scooter drone" />
    <edge id="-1025146122" from="9452409136" to="345771280" priority="4" type="highway.unclassified" numLanes="1" speed="13.89" disallow="tram rail_urban rail rail_electric rail_fast ship container cable_car subway aircraft wheelchair scooter drone" />
    <edge id="-1039596765#0" from="9573747223" to="9572924202" priority="3" type="highway.residential" numLanes="1" speed="13.89" disallow="tram rail_urban rail rail_electric rail_fast ship container cable_car subway aircraft wheelchair scooter drone" />
    <edge id="-1039596765#1" from="9572924203" to="9573747223" priority="3" type="highway.residential" numLanes="1" speed="13.89" disallow="tram rail_urban rail rail_electric rail_fast ship container cable_car subway aircraft wheelchair scooter drone" />
    <edge id="-1040202158#0" from="7394645020" to="1311896151" priority="10" type="highway.tertiary" numLanes="1" speed="22.22" shape="9166.49,2840.91 9170.53,2844.67 9174.34,2848.37" disallow="tram rail_urban rail rail_electric rail_fast ship container cable_car subway aircraft wheelchair scooter drone" />
    <edge id="-1040202158#1" from="9577680359" to="7394645020" priority="10" type="highway.tertiary" numLanes="1" speed="22.22" shape="9132.83,2809.43 9138.50,2814.73 9154.79,2829.96 9166.49,2840.91" disallow="tram rail_urban rail rail_electric rail_fast ship container cable_car subway aircraft wheelchair scooter drone" />
    <edge id="-1040202172#0" from="9577680217" to="243215279" priority="10" type="highway.tertiary" numLanes="1" speed="22.22" disallow="tram rail_urban rail rail_electric rail_fast ship container cable_car subway aircraft wheelchair scooter drone" />
    <edge id="-1040202172#1" from="9577680422" to="9577680217" priority="10" type="highway.tertiary" numLanes="1" speed="22.22" disallow="tram rail_urban rail rail_electric rail_fast ship container cable_car subway aircraft wheelchair scooter drone" />
    <edge id="-1050318149" from="9652139241" to="752693621" priority="10" type="highway.tertiary" numLanes="1" speed="8.33" disallow="tram rail_urban rail rail_electric rail_fast ship container cable_car subway aircraft wheelchair scooter drone" />
    <edge id="-1050318150#0" from="11905026226" to="241925186" priority="10" type="highway.tertiary" numLanes="1" speed="8.33" disallow="tram rail_urban rail rail_electric rail_fast ship container cable_car subway aircraft wheelchair scooter drone" />
    <edge id="-1050318150#1" from="9652139243" to="11905026226" priority="10" type="highway.tertiary" numLanes="1" speed="8.33" shape="6519.55,3725.95 6524.38,3719.30 6533.69,3706.78 6536.33,3703.24" disallow="tram rail_urban rail rail_electric rail_fast ship container cable_car subway aircraft wheelchair scooter drone" />
    <edge id="-1058083886" from="9722309760" to="9722309761" priority="3" type="highway.residential" numLanes="1" speed="13.89" disallow="tram rail_urban rail rail_electric rail_fast ship container cable_car subway aircraft wheelchair scooter drone" />
    <edge id="-1070140790" from="105412990" to="105412988" priority="11" type="highway.secondary" numLanes="1" speed="13.89" shape="8252.56,5452.61 8257.33,5452.52 8260.91,5452.79 8265.40,5453.20" disallow="tram rail_urban rail rail_electric rail_fast ship container cable_car subway aircraft wheelchair scooter drone" />
    <edge id="-107825683#0" from="9971989590" to="243192278" priority="3" type="highway.residential" numLanes="1" speed="8.33" disallow="tram rail_urban rail rail_electric rail_fast ship container cable_car subway aircraft wheelchair scooter drone" />
    <edge id="-107825683#1" from="1238505921" to="9971989590" priority="3" type="highway.residential" numLanes="1" speed="8.33" disallow="tram rail_urban rail rail_electric rail_fast ship container cable_car subway aircraft wheelchair scooter drone" />
    <edge id="-107825683#2" from="1364310443" to="1238505921" priority="3" type="highway.residential" numLanes="1" speed="8.33" disallow="tram rail_urban rail rail_electric rail_fast ship container cable_car subway aircraft wheelchair scooter drone" />
    <edge id="-107825683#3" from="1238505928" to="1364310443" priority="3" type="highway.residential" numLanes="1" speed="8.33" disallow="tram rail_urban rail rail_electric rail_fast ship container cable_car subway aircraft wheelchair scooter drone" />
    <edge id="-1108126471#0" from="5151607924" to="266354384" priority="3" type="highway.residential" numLanes="1" speed="13.89" disallow="tram rail_urban rail rail_electric rail_fast ship container cable_car subway aircraft wheelchair scooter drone" />
    <edge id="-1108126471#1" from="1988135284" to="5151607924" priority="3" type="highway.residential" numLanes="1" speed="13.89" disallow="tram rail_urban rail rail_electric rail_fast ship container cable_car subway aircraft wheelchair scooter drone" />
    <edge id="-1108375163#0" from="7541149244" to="1835927646" priority="3" type="highway.residential" numLanes="1" speed="13.89" disallow="tram rail_urban rail rail_electric rail_fast ship container cable_car subway aircraft wheelchair scooter drone" />
    <edge id="-1108375163#1" from="10250950177" to="7541149244" priority="3" type="highway.residential" numLanes="1" speed="13.89" disallow="tram rail_urban rail rail_electric rail_fast ship container cable_car subway aircraft wheelchair scooter drone" />
    <edge id="-1108375163#2" from="1835927635" to="10250950177" priority="3" type="highway.residential" numLanes="1" speed="13.89" disallow="tram rail_urban rail rail_electric rail_fast ship container cable_car subway aircraft wheelchair scooter drone" />
    <edge id="-1108375163#3" from="1835927624" to="1835927635" priority="3" type="highway.residential" numLanes="1" speed="13.89" disallow="tram rail_urban rail rail_electric rail_fast ship container cable_car subway aircraft wheelchair scooter drone" />
    <edge id="-1108375170" from="1838154307" to="1838154300" priority="3" type="highway.residential" numLanes="1" speed="13.89" disallow="tram rail_urban rail rail_electric rail_fast ship container cable_car subway aircraft wheelchair scooter drone" />
    <edge id="-1122862008#0" from="5115098167" to="1836967642" priority="10" type="highway.tertiary" numLanes="1" speed="22.22" disallow="tram rail_urban rail rail_electric rail_fast ship container cable_car subway aircraft wheelchair scooter drone" />
    <edge id="-1122862008#1" from="326155479" to="5115098167" priority="10" type="highway.tertiary" numLanes="1" speed="22.22" disallow="tram rail_urban rail rail_electric rail_fast ship container cable_car subway aircraft wheelchair scooter drone" />
    <edge id="-1122862008#2" from="11542612274" to="326155479" priority="10" type="highway.tertiary" numLanes="1" speed="22.22" shape="8253.06,1225.42 8289.03,1210.94 8309.00,1202.98" disallow="tram rail_urban rail rail_electric rail_fast ship container cable_car subway aircraft wheelchair scooter drone" />
    <edge id="-1122862008#3" from="7817780373" to="11542612274" priority="10" type="highway.tertiary" numLanes="1" speed="22.22" shape="8190.01,1250.44 8239.69,1230.73 8253.06,1225.42" disallow="tram rail_urban rail rail_electric rail_fast ship container cable_car subway aircraft wheelchair scooter drone" />
    <edge id="-1122862008#4" from="2295903677" to="7817780373" priority="10" type="highway.tertiary" numLanes="1" speed="22.22" disallow="tram rail_urban rail rail_electric rail_fast ship container cable_car subway aircraft wheelchair scooter drone" />
    <edge id="-1122862008#5" from="7817780374" to="2295903677" priority="10" type="highway.tertiary" numLanes="1" speed="22.22" shape="8051.04,1332.93 8084.12,1298.01 8111.11,1283.40 8142.86,1269.25" disallow="tram rail_urban rail rail_electric rail_fast ship container cable_car subway aircraft wheelchair scooter drone" />
    <edge id="-1122862012#0" from="7538220618" to="243736452" priority="3" type="highway.residential" numLanes="1" speed="13.89" disallow="tram rail_urban rail rail_electric rail_fast ship container cable_car subway aircraft wheelchair scooter drone" />
    <edge id="-1122862012#1" from="1835927626" to="7538220618" priority="3" type="highway.residential" numLanes="1" speed="13.89" disallow="tram rail_urban rail rail_electric rail_fast ship container cable_car subway aircraft wheelchair scooter drone" />
    <edge id="-1122862012#10" from="1676173863" to="2402141809" priority="3" type="highway.residential" numLanes="1" speed="13.89" disallow="tram rail_urban rail rail_electric rail_fast ship container cable_car subway aircraft wheelchair scooter drone" />
    <edge id="-1122862012#2" from="1835927637" to="1835927626" priority="3" type="highway.residential" numLanes="1" speed="13.89" disallow="tram rail_urban rail rail_electric rail_fast ship container cable_car subway aircraft wheelchair scooter drone" />
    <edge id="-1122862012#3" from="7541149590" to="1835927637" priority="3" type="highway.residential" numLanes="1" speed="13.89" disallow="tram rail_urban rail rail_electric rail_fast ship container cable_car subway aircraft wheelchair scooter drone" />
    <edge id="-1122862012#4" from="1835927646" to="7541149590" priority="3" type="highway.residential" numLanes="1" speed="13.89" disallow="tram rail_urban rail rail_electric rail_fast ship container cable_car subway aircraft wheelchair scooter drone" />
    <edge id="-1122862012#5" from="7541104197" to="1835927646" priority="3" type="highway.residential" numLanes="1" speed="13.89" disallow="tram rail_urban rail rail_electric rail_fast ship container cable_car subway aircraft wheelchair scooter drone" />
    <edge id="-1122862012#6" from="10139348212" to="7541104197" priority="3" type="highway.residential" numLanes="1" speed="13.89" disallow="tram rail_urban rail rail_electric rail_fast ship container cable_car subway aircraft wheelchair scooter drone" />
    <edge id="-1122862012#7" from="10139348214" to="10139348212" priority="3" type="highway.residential" numLanes="1" speed="13.89" disallow="tram rail_urban rail rail_electric rail_fast ship container cable_car subway aircraft wheelchair scooter drone" />
    <edge id="-1122862012#8" from="10204738267" to="10139348214" priority="3" type="highway.residential" numLanes="1" speed="13.89" disallow="tram rail_urban rail rail_electric rail_fast ship container cable_car subway aircraft wheelchair scooter drone" />
    <edge id="-1122862012#9" from="2402141809" to="10204738267" priority="3" type="highway.residential" numLanes="1" speed="13.89" shape="7644.32,2132.69 7627.12,2106.29 7620.62,2096.31" disallow="tram rail_urban rail rail_electric rail_fast ship container cable_car subway aircraft wheelchair scooter drone" />
    <edge id="-112673961#0" from="1280208156" to="1280208153" priority="2" type="highway.living_street" numLanes="1" speed="2.78" shape="5523.41,2880.08 5519.75,2881.31 5500.98,2825.39 5514.66,2820.83" disallow="tram rail_urban rail rail_electric rail_fast ship container cable_car subway aircraft wheelchair scooter drone" />
    <edge id="-112673961#1" from="1280208153" to="1280208156" priority="2" type="highway.living_street" numLanes="1" speed="2.78" shape="5514.66,2820.83 5527.12,2816.67 5545.89,2872.58 5523.41,2880.08" disallow="tram rail_urban rail rail_electric rail_fast ship container cable_car subway aircraft wheelchair scooter drone" />
    <edge id="-112673962#0" from="1884238564" to="1280208134" priority="3" type="highway.residential" numLanes="1" speed="13.89" disallow="tram rail_urban rail rail_electric rail_fast ship container cable_car subway aircraft wheelchair scooter drone" />
    <edge id="-112673962#1" from="11773861670" to="1884238564" priority="3" type="highway.residential" numLanes="1" speed="13.89" disallow="tram rail_urban rail rail_electric rail_fast ship container cable_car subway aircraft wheelchair scooter drone" />
    <edge id="-112673962#2" from="1280208173" to="11773861670" priority="3" type="highway.residential" numLanes="1" speed="13.89" disallow="tram rail_urban rail rail_electric rail_fast ship container cable_car subway aircraft wheelchair scooter drone" />
    <edge id="-112673962#3" from="5151390385" to="1280208173" priority="3" type="highway.residential" numLanes="1" speed="13.89" disallow="tram rail_urban rail rail_electric rail_fast ship container cable_car subway aircraft wheelchair scooter drone" />
    <edge id="-112673965#0" from="668288660" to="1280208138" priority="3" type="highway.residential" numLanes="1" speed="13.89" shape="5625.45,3150.45 5608.76,3107.26 5602.84,3093.32" disallow="tram rail_urban rail rail_electric rail_fast ship container cable_car subway aircraft wheelchair scooter drone" />
    <edge id="-112673965#1" from="1850652940" to="668288660" priority="3" type="highway.residential" numLanes="1" speed="13.89" disallow="tram rail_urban rail rail_electric rail_fast ship container cable_car subway aircraft wheelchair scooter drone" />
    <edge id="-112673965#2" from="3526249783" to="1850652940" priority="3" type="highway.residential" numLanes="1" speed="13.89" shape="5667.68,3216.13 5652.58,3202.36 5631.18,3161.40" disallow="tram rail_urban rail rail_electric rail_fast ship container cable_car subway aircraft wheelchair scooter drone" />
    <edge id="-112673965#3" from="5160390803" to="3526249783" priority="3" type="highway.residential" numLanes="1" speed="13.89" disallow="tram rail_urban rail rail_electric rail_fast ship container cable_car subway aircraft wheelchair scooter drone" />
    <edge id="-112673965#4" from="1850652974" to="5160390803" priority="3" type="highway.residential" numLanes="1" speed="13.89" disallow="tram rail_urban rail rail_electric rail_fast ship container cable_car subway aircraft wheelchair scooter drone" />
    <edge id="-112673965#5" from="7205940202" to="1850652974" priority="3" type="highway.residential" numLanes="1" speed="13.89" disallow="tram rail_urban rail rail_electric rail_fast ship container cable_car subway aircraft wheelchair scooter drone" />
    <edge id="-112673965#6" from="242542682" to="7205940202" priority="3" type="highway.residential" numLanes="1" speed="13.89" disallow="tram rail_urban rail rail_electric rail_fast ship container cable_car subway aircraft wheelchair scooter drone" />
    <edge id="-113961904#0" from="2313621907" to="242181343" priority="3" type="highway.residential" numLanes="1" speed="13.89" shape="6411.28,3975.89 6409.15,3974.35 6389.08,3959.00 6376.29,3949.73" disallow="tram rail_urban rail rail_electric rail_fast ship container cable_car subway aircraft wheelchair scooter drone" />
    <edge id="-113961904#1" from="1405335082" to="2313621907" priority="3" type="highway.residential" numLanes="1" speed="13.89" disallow="tram rail_urban rail rail_electric rail_fast ship container cable_car subway aircraft wheelchair scooter drone" />
    <edge id="-113961904#2" from="2266886016" to="1405335082" priority="3" type="highway.residential" numLanes="1" speed="13.89" disallow="tram rail_urban rail rail_electric rail_fast ship container cable_car subway aircraft wheelchair scooter drone" />
    <edge id="-114133013#0" from="10956907877" to="330938347" priority="3" type="highway.residential" numLanes="1" speed="13.89" disallow="tram rail_urban rail rail_electric rail_fast ship container cable_car subway aircraft wheelchair scooter drone" />
    <edge id="-114133013#1" from="8121617667" to="10956907877" priority="3" type="highway.residential" numLanes="1" speed="13.89" disallow="tram rail_urban rail rail_electric rail_fast ship container cable_car subway aircraft wheelchair scooter drone" />
    <edge id="-114133013#2" from="1293308110" to="8121617667" priority="3" type="highway.residential" numLanes="1" speed="13.89" disallow="tram rail_urban rail rail_electric rail_fast ship container cable_car subway aircraft wheelchair scooter drone" />
    <edge id="-114133017#0" from="1293307984" to="242927239" priority="3" type="highway.residential" numLanes="1" speed="13.89" shape="6817.98,2903.69 6763.15,2819.30 6756.53,2809.05" disallow="tram rail_urban rail rail_electric rail_fast ship container cable_car subway aircraft wheelchair scooter drone" />
    <edge id="-114133017#1" from="242927226" to="1293307984" priority="3" type="highway.residential" numLanes="1" speed="13.89" disallow="tram rail_urban rail rail_electric rail_fast ship container cable_car subway aircraft wheelchair scooter drone" />
    <edge id="-114133017#2" from="1849018617" to="242927226" priority="3" type="highway.residential" numLanes="1" speed="13.89" shape="6848.68,2960.65 6839.85,2940.80 6827.43,2918.73" disallow="tram rail_urban rail rail_electric rail_fast ship container cable_car subway aircraft wheelchair scooter drone" />
    <edge id="-114133017#3" from="1363623825" to="1849018617" priority="3" type="highway.residential" numLanes="1" speed="13.89" shape="6864.68,2996.67 6861.84,2990.28 6848.68,2960.65" disallow="tram rail_urban rail rail_electric rail_fast ship container cable_car subway aircraft wheelchair scooter drone" />
    <edge id="-114133017#4" from="416427523" to="1363623825" priority="3" type="highway.residential" numLanes="1" speed="13.89" disallow="tram rail_urban rail rail_electric rail_fast ship container cable_car subway aircraft wheelchair scooter drone" />
    <edge id="-114133017#5" from="242927227" to="416427523" priority="3" type="highway.residential" numLanes="1" speed="13.89" disallow="tram rail_urban rail rail_electric rail_fast ship container cable_car subway aircraft wheelchair scooter drone" />
    <edge id="-114133023" from="1293307959" to="1293308114" priority="3" type="highway.residential" numLanes="1" speed="13.89" disallow="tram rail_urban rail rail_electric rail_fast ship container cable_car subway aircraft wheelchair scooter drone" />
    <edge id="-115189841" from="1302469246" to="242554786" priority="4" type="highway.unclassified" numLanes="1" speed="13.89" shape="4747.51,2118.53 4746.77,2128.59 4753.17,2149.69" disallow="tram rail_urban rail rail_electric rail_fast ship container cable_car subway aircraft wheelchair scooter drone" />
    <edge id="-115189844#0" from="1302469201" to="1302469246" priority="4" type="highway.unclassified" numLanes="1" speed="13.89" shape="4811.80,1944.38 4823.91,1949.56 4827.52,1954.52 4829.27,1960.50 4828.55,1968.81 4829.00,1977.71 4833.76,2000.75 4836.13,2033.44 4830.92,2072.18 4825.27,2084.24 4816.09,2095.44 4803.57,2102.53 4768.49,2111.75 4755.60,2115.42 4747.51,2118.53" disallow="tram rail_urban rail rail_electric rail_fast ship container cable_car subway aircraft wheelchair scooter drone" />
    <edge id="-115189844#1" from="5003233138" to="1302469201" priority="4" type="highway.unclassified" numLanes="1" speed="13.89" disallow="tram rail_urban rail rail_electric rail_fast ship container cable_car subway aircraft wheelchair scooter drone" />
    <edge id="-116382856" from="1312087208" to="1312087301" priority="3" type="highway.residential" numLanes="1" speed="8.33" shape="6979.98,3377.84 6970.69,3374.77 6956.45,3369.42" disallow="tram rail_urban rail rail_electric rail_fast ship container cable_car subway aircraft wheelchair scooter drone" />
    <edge id="-116382857" from="1312087266" to="1312087289" priority="3" type="highway.residential" numLanes="1" speed="8.33" disallow="tram rail_urban rail rail_electric rail_fast ship container cable_car subway aircraft wheelchair scooter drone" />
    <edge id="-116382862" from="1312087263" to="1312087212" priority="3" type="highway.residential" numLanes="1" speed="8.33" disallow="tram rail_urban rail rail_electric rail_fast ship container cable_car subway aircraft wheelchair scooter drone" />
    <edge id="-116382864#0" from="1312087263" to="1312087227" priority="3" type="highway.residential" numLanes="1" speed="8.33" disallow="tram rail_urban rail rail_electric rail_fast ship container cable_car subway aircraft wheelchair scooter drone" />
    <edge id="-116382864#1" from="1312087289" to="1312087263" priority="3" type="highway.residential" numLanes="1" speed="8.33" disallow="tram rail_urban rail rail_electric rail_fast ship container cable_car subway aircraft wheelchair scooter drone" />
    <edge id="-116382864#2" from="9979704180" to="1312087289" priority="3" type="highway.residential" numLanes="1" speed="8.33" disallow="tram rail_urban rail rail_electric rail_fast ship container cable_car subway aircraft wheelchair scooter drone" />
    <edge id="-116382864#3" from="1312087255" to="9979704180" priority="3" type="highway.residential" numLanes="1" speed="8.33" disallow="tram rail_urban rail rail_electric rail_fast ship container cable_car subway aircraft wheelchair scooter drone" />
    <edge id="-116382864#4" from="1312087288" to="1312087255" priority="3" type="highway.residential" numLanes="1" speed="8.33" disallow="tram rail_urban rail rail_electric rail_fast ship container cable_car subway aircraft wheelchair scooter drone" />
    <edge id="-116382864#5" from="12404845576" to="1312087288" priority="3" type="highway.residential" numLanes="1" speed="8.33" disallow="tram rail_urban rail rail_electric rail_fast ship container cable_car subway aircraft wheelchair scooter drone" />
    <edge id="-116382864#6" from="243208149" to="12404845576" priority="3" type="highway.residential" numLanes="1" speed="8.33" shape="6857.09,3178.58 6864.62,3194.64 6876.89,3223.05" disallow="tram rail_urban rail rail_electric rail_fast ship container cable_car subway aircraft wheelchair scooter drone" />
    <edge id="-116382866#0" from="9971989580" to="11854125234" priority="3" type="highway.residential" numLanes="1" speed="8.33" shape="7024.51,3383.29 7022.66,3382.57 6994.51,3372.01" disallow="tram rail_urban rail rail_electric rail_fast ship container cable_car subway aircraft wheelchair scooter drone" />
    <edge id="-116382866#1" from="1312087223" to="9971989580" priority="3" type="highway.residential" numLanes="1" speed="8.33" disallow="tram rail_urban rail rail_electric rail_fast ship container cable_car subway aircraft wheelchair scooter drone" />
    <edge id="-1164668687" from="243737461" to="243737211" priority="3" type="highway.residential" numLanes="1" speed="8.33" shape="7419.92,1790.29 7463.49,1762.15 7465.83,1759.95 7467.05,1757.27 7467.59,1754.64 7467.85,1752.09 7467.37,1749.59 7441.44,1708.06 7440.64,1700.96" disallow="tram rail_urban rail rail_electric rail_fast ship container cable_car subway aircraft wheelchair scooter drone" />
    <edge id="-117355631#0" from="11608128945" to="1321730738" priority="3" type="highway.residential" numLanes="1" speed="13.89" disallow="tram rail_urban rail rail_electric rail_fast ship container cable_car subway aircraft wheelchair scooter drone" />
    <edge id="-117355631#1" from="1321730771" to="11608128945" priority="3" type="highway.residential" numLanes="1" speed="13.89" disallow="tram rail_urban rail rail_electric rail_fast ship container cable_car subway aircraft wheelchair scooter drone" />
    <edge id="-117355631#2" from="665270258" to="1321730771" priority="3" type="highway.residential" numLanes="1" speed="13.89" shape="6855.30,4494.96 6864.91,4481.86 6926.60,4401.17 6932.34,4396.87 6934.43,4396.58" disallow="tram rail_urban rail rail_electric rail_fast ship container cable_car subway aircraft wheelchair scooter drone" />
    <edge id="-117355631#3" from="11545398514" to="665270258" priority="3" type="highway.residential" numLanes="1" speed="13.89" disallow="tram rail_urban rail rail_electric rail_fast ship container cable_car subway aircraft wheelchair scooter drone" />
    <edge id="-1175034647#0" from="10918274258" to="10918274250" priority="3" type="highway.residential" numLanes="1" speed="13.89" shape="6206.28,1895.86 6269.77,1904.91 6282.25,1906.77" disallow="tram rail_urban rail rail_electric rail_fast ship container cable_car subway aircraft wheelchair scooter drone" />
    <edge id="-1175034647#1" from="12467262386" to="10918274258" priority="3" type="highway.residential" numLanes="1" speed="13.89" disallow="tram rail_urban rail rail_electric rail_fast ship container cable_car subway aircraft wheelchair scooter drone" />
    <edge id="-1175034647#2" from="10918274253" to="12467262386" priority="3" type="highway.residential" numLanes="1" speed="13.89" disallow="tram rail_urban rail rail_electric rail_fast ship container cable_car subway aircraft wheelchair scooter drone" />
    <edge id="-1175034647#3" from="10918274252" to="10918274253" priority="3" type="highway.residential" numLanes="1" speed="13.89" disallow="tram rail_urban rail rail_electric rail_fast ship container cable_car subway aircraft wheelchair scooter drone" />
    <edge id="-1175034649" from="10918274268" to="10918274250" priority="3" type="highway.residential" numLanes="1" speed="13.89" shape="6361.85,1970.97 6285.71,1978.08 6283.25,1976.82 6274.36,1963.42 6274.10,1960.79 6274.64,1956.63 6282.25,1906.77" disallow="tram rail_urban rail rail_electric rail_fast ship container cable_car subway aircraft wheelchair scooter drone" />