<?xml version="1.0" encoding="UTF-8"?>

<!-- generated on 2025-04-30 00:19:31 by Eclipse SUMO netconvert Version 1.22.0
<netconvertConfiguration xmlns:xsi="http://www.w3.org/2001/XMLSchema-instance" xsi:noNamespaceSchemaLocation="http://sumo.dlr.de/xsd/netconvertConfiguration.xsd">

    <input>
        <sumo-net-file value="fontenay_en_parisis/fontenay_en_parisis.net.xml"/>
    </input>

    <output>
        <plain-output-prefix value="fontenay_en_parisis/fontenay_en_parisis"/>
    </output>

    <processing>
        <geometry.min-radius.fix.railways value="false"/>
        <geometry.max-grade.fix value="false"/>
        <offset.disable-normalization value="true"/>
        <lefthand value="0"/>
    </processing>

    <tls_building>
        <tls.ignore-internal-junction-jam value="1"/>
    </tls_building>

    <junctions>
        <no-turnarounds value="true"/>
        <junctions.corner-detail value="5"/>
        <junctions.limit-turn-speed value="5.50"/>
        <rectangular-lane-cut value="0"/>
    </junctions>

    <pedestrian>
        <walkingareas value="0"/>
    </pedestrian>

</netconvertConfiguration>
-->

<nodes version="1.20" xmlns:xsi="http://www.w3.org/2001/XMLSchema-instance" xsi:noNamespaceSchemaLocation="http://sumo.dlr.de/xsd/nodes_file.xsd">
    <location netOffset="-456526.72,-5428703.59" convBoundary="0.00,0.00,9034.46,11365.89" origBoundary="1.932246,48.983970,2.580898,49.112513" projParameter="+proj=utm +zone=31 +ellps=WGS84 +datum=WGS84 +units=m +no_defs"/>

    <node id="10006462767" x="7549.34" y="621.65" type="priority"/>
    <node id="10006462768" x="7534.68" y="859.61" type="right_before_left"/>
    <node id="10006462772" x="7122.30" y="578.13" type="priority"/>
    <node id="10006462773" x="6691.90" y="583.95" type="priority"/>
    <node id="10006462782" x="6591.21" y="787.27" type="right_before_left"/>
    <node id="10006462783" x="6543.73" y="785.53" type="right_before_left"/>
    <node id="10006462784" x="6750.57" y="798.47" type="priority"/>
    <node id="10031745397" x="4669.24" y="1220.25" type="right_before_left"/>
    <node id="10031745398" x="4658.38" y="1218.72" type="priority"/>
    <node id="10031745399" x="4641.79" y="1216.39" type="right_before_left"/>
    <node id="10031745400" x="4646.28" y="1184.01" type="right_before_left"/>
    <node id="10031745401" x="4644.66" y="1196.57" type="priority"/>
    <node id="10031745402" x="4639.32" y="1233.42" type="right_before_left"/>
    <node id="10031745407" x="4656.29" y="1235.55" type="priority"/>
    <node id="10031807337" x="4637.82" y="1249.14" type="priority"/>
    <node id="10031807372" x="4830.87" y="1216.52" type="right_before_left"/>
    <node id="10031807381" x="4810.33" y="1234.69" type="priority"/>
    <node id="10031807382" x="4814.34" y="1238.89" type="priority"/>
    <node id="10031807383" x="4817.50" y="1243.00" type="priority"/>
    <node id="10031807384" x="4820.67" y="1245.57" type="right_before_left"/>
    <node id="10031807389" x="4807.64" y="1195.11" type="priority"/>
    <node id="10034270480" x="1167.92" y="1814.03" type="priority"/>
    <node id="10034732982" x="6719.75" y="5258.02" type="right_before_left"/>
    <node id="10034732983" x="6714.70" y="5260.30" type="priority"/>
    <node id="10034732986" x="6723.05" y="5256.51" type="right_before_left"/>
    <node id="10034732987" x="6731.76" y="5252.53" type="right_before_left"/>
    <node id="10034735154" x="2840.14" y="940.01" type="priority"/>
    <node id="10049105181" x="7426.83" y="5022.53" type="priority"/>
    <node id="10049105185" x="7434.65" y="5017.10" type="priority"/>
    <node id="10049105190" x="7569.75" y="5117.49" type="priority"/>
    <node id="10049105198" x="7559.51" y="4945.95" type="priority"/>
    <node id="10049105200" x="7573.75" y="5020.73" type="priority"/>
    <node id="10049105201" x="7437.48" y="4805.26" type="dead_end"/>
    <node id="10049105203" x="7364.55" y="4727.52" type="dead_end"/>
    <node id="10049105207" x="7415.64" y="5002.57" type="priority"/>
    <node id="10049105210" x="7303.93" y="5106.77" type="dead_end"/>
    <node id="10049105211" x="7325.43" y="5080.60" type="dead_end"/>
    <node id="10049105215" x="7332.36" y="5017.12" type="dead_end"/>
    <node id="10049105216" x="7309.39" y="4907.15" type="priority"/>
    <node id="10049129719" x="7397.94" y="4895.96" type="dead_end"/>
    <node id="10049129720" x="7379.05" y="4806.15" type="dead_end"/>
    <node id="10049129721" x="7371.75" y="4807.15" type="priority"/>
    <node id="10049129722" x="7348.21" y="4907.98" type="priority"/>
    <node id="10049129726" x="7377.08" y="4842.63" type="priority"/>
    <node id="10049129727" x="7389.39" y="4898.49" type="priority"/>
    <node id="10049129729" x="7305.81" y="4820.27" type="dead_end"/>
    <node id="10049129730" x="7443.96" y="4821.64" type="priority"/>
    <node id="10049129732" x="7453.05" y="4883.28" type="right_before_left"/>
    <node id="10049129734" x="7445.97" y="4873.99" type="priority"/>
    <node id="10049129736" x="7376.24" y="4784.69" type="dead_end"/>
    <node id="10049129737" x="7401.36" y="4903.63" type="priority"/>
    <node id="10049129744" x="7344.96" y="4696.13" type="dead_end"/>
    <node id="10049129749" x="7359.80" y="4717.93" type="dead_end"/>
    <node id="10049129750" x="7353.94" y="4721.09" type="priority"/>
    <node id="10049129753" x="7309.70" y="4725.86" type="dead_end"/>
    <node id="10049129754" x="7347.42" y="4999.11" type="priority"/>
    <node id="10060858377" x="3032.55" y="3114.88" type="right_before_left"/>
    <node id="10060858378" x="3122.42" y="3145.66" type="priority"/>
    <node id="10060858381" x="3026.85" y="3114.16" type="right_before_left"/>
    <node id="10060937648" x="2387.74" y="3869.29" type="right_before_left"/>
    <node id="10060937652" x="2288.09" y="3770.93" type="priority"/>
    <node id="10060937669" x="2881.64" y="3556.14" type="right_before_left"/>
    <node id="10066779776" x="8093.11" y="5204.50" type="priority"/>
    <node id="10066779777" x="8082.69" y="5212.15" type="dead_end"/>
    <node id="10068732739" x="4934.43" y="2473.65" type="priority"/>
    <node id="10068732743" x="4900.83" y="2499.72" type="priority"/>
    <node id="101220399#0-AddedOffRampNode" x="3597.64" y="4045.35" type="priority"/>
    <node id="101220399#1-AddedOffRampNode" x="5093.90" y="3977.28" type="priority"/>
    <node id="1013604817" x="7760.85" y="4168.46" type="priority"/>
    <node id="1013604818" x="7770.27" y="4186.03" type="priority"/>
    <node id="1013604819" x="7785.83" y="4174.72" type="priority"/>
    <node id="1015964685" x="5610.44" y="942.75" type="right_before_left"/>
    <node id="1015964835" x="5379.37" y="823.11" type="right_before_left"/>
    <node id="1015965020" x="5113.88" y="853.54" type="right_before_left"/>
    <node id="1015965142" x="5254.33" y="835.31" type="dead_end"/>
    <node id="1015965196" x="5226.52" y="692.83" type="right_before_left"/>
    <node id="1015965526" x="5120.22" y="725.94" type="priority"/>
    <node id="1015965993" x="5537.47" y="711.33" type="priority"/>
    <node id="1015966039" x="5474.28" y="935.07" type="priority"/>
    <node id="1015966319" x="5277.22" y="912.96" type="priority"/>
    <node id="1015966340" x="5447.00" y="914.57" type="priority"/>
    <node id="1015966451" x="5144.41" y="935.38" type="right_before_left"/>
    <node id="1015966516" x="5484.88" y="879.48" type="dead_end"/>
    <node id="1015966537" x="5515.93" y="715.78" type="right_before_left"/>
    <node id="1015966600" x="5499.31" y="809.38" type="dead_end"/>
    <node id="1015966673" x="5624.66" y="1014.22" type="dead_end"/>
    <node id="1015966762" x="5132.63" y="536.15" type="priority"/>
    <node id="1015966876" x="5346.23" y="794.39" type="right_before_left"/>
    <node id="1015967517" x="5560.15" y="709.63" type="priority"/>
    <node id="1015967522" x="5470.48" y="780.63" type="dead_end"/>
    <node id="10161893614" x="3899.24" y="6378.69" type="priority"/>
    <node id="10161903423" x="3924.98" y="6333.20" type="priority"/>
    <node id="10161903426" x="3917.78" y="6338.42" type="right_before_left"/>
    <node id="10161903437" x="3854.29" y="6402.51" type="priority"/>
    <node id="10161903450" x="3928.30" y="6440.25" type="right_before_left"/>
    <node id="10161903459" x="3949.19" y="6442.92" type="right_before_left"/>
    <node id="10161903462" x="3944.40" y="6424.85" type="priority"/>
    <node id="10161903465" x="3971.32" y="6484.26" type="priority"/>
    <node id="10162143583" x="3765.38" y="6404.77" type="right_before_left"/>
    <node id="10162143593" x="3811.57" y="6295.91" type="right_before_left"/>
    <node id="10162143596" x="3508.11" y="6534.69" type="priority"/>
    <node id="10162143599" x="3772.46" y="6330.17" type="priority"/>
    <node id="10162143601" x="3738.54" y="6318.21" type="right_before_left"/>
    <node id="10162143606" x="3671.21" y="6290.37" type="priority"/>
    <node id="10162143607" x="3655.90" y="6276.94" type="dead_end"/>
    <node id="10162143610" x="3606.81" y="6294.38" type="dead_end"/>
    <node id="10162170025" x="3742.06" y="6304.92" type="dead_end"/>
    <node id="10162170026" x="3759.12" y="6408.16" type="dead_end"/>
    <node id="10162170035" x="3726.22" y="6414.93" type="dead_end"/>
    <node id="10162170040" x="3763.52" y="6435.36" type="dead_end"/>
    <node id="10162170042" x="3768.89" y="6429.76" type="dead_end"/>
    <node id="10162170051" x="3777.56" y="6325.44" type="priority"/>
    <node id="10162170052" x="3777.88" y="6266.92" type="priority"/>
    <node id="10162170060" x="3655.54" y="6429.59" type="dead_end"/>
    <node id="10162543492" x="4235.99" y="6294.39" type="priority"/>
    <node id="10162543500" x="4243.10" y="6282.25" type="dead_end"/>
    <node id="10162543501" x="4246.46" y="6281.41" type="dead_end"/>
    <node id="10162543502" x="4245.83" y="6277.85" type="dead_end"/>
    <node id="10162543503" x="4254.83" y="6263.40" type="dead_end"/>
    <node id="10162543505" x="4257.36" y="6287.55" type="dead_end"/>
    <node id="10162543511" x="4283.99" y="6315.46" type="priority"/>
    <node id="10162543512" x="4290.95" y="6314.67" type="right_before_left"/>
    <node id="10162571017" x="4292.22" y="6306.09" type="priority"/>
    <node id="10162571061" x="2890.16" y="4941.45" type="priority"/>
    <node id="10162571081" x="2878.47" y="4535.04" type="priority"/>
    <node id="10162806790" x="3455.38" y="3435.61" type="priority"/>
    <node id="10171760592" x="3474.89" y="3380.52" type="priority"/>
    <node id="10171760599" x="3457.82" y="3488.68" type="priority"/>
    <node id="10251573007" x="2975.67" y="975.32" type="priority"/>
    <node id="10267728413" x="7902.19" y="4466.74" type="priority"/>
    <node id="10267728416" x="7316.75" y="4683.13" type="dead_end"/>
    <node id="10267728417" x="7315.33" y="4690.86" type="dead_end"/>
    <node id="10277378092" x="7052.24" y="2326.62" type="priority"/>
    <node id="10277393263" x="6718.47" y="1320.91" type="priority"/>
    <node id="10277393270" x="6376.37" y="456.31" type="dead_end"/>
    <node id="10277393271" x="6396.44" y="496.26" type="dead_end"/>
    <node id="10286434485" x="2457.52" y="824.68" type="right_before_left"/>
    <node id="10286434488" x="2458.02" y="835.84" type="right_before_left"/>
    <node id="10292270426" x="3283.96" y="2544.35" type="priority"/>
    <node id="10292985273" x="8361.33" y="2436.29" type="priority"/>
    <node id="10292985276" x="8305.86" y="2857.17" type="right_before_left"/>
    <node id="10292985472" x="5943.84" y="1229.43" type="priority"/>
    <node id="10292985479" x="5296.89" y="950.69" type="priority"/>
    <node id="10292985481" x="5285.44" y="965.61" type="right_before_left"/>
    <node id="10292985541" x="4351.04" y="662.65" type="priority"/>
    <node id="10292985548" x="4147.31" y="939.05" type="priority"/>
    <node id="1034076394" x="4039.69" y="1849.47" type="right_before_left"/>
    <node id="1034076449" x="4141.36" y="1458.63" type="priority"/>
    <node id="1034076475" x="4044.89" y="1836.93" type="right_before_left"/>
    <node id="1034076507" x="4049.71" y="1825.31" type="right_before_left"/>
    <node id="1034076545" x="4054.61" y="1813.48" type="right_before_left"/>
    <node id="1034076553" x="4083.29" y="1795.18" type="priority"/>
    <node id="1034076587" x="4060.00" y="1800.51" type="right_before_left"/>
    <node id="1034076619" x="4107.94" y="1875.43" type="right_before_left"/>
    <node id="1034076621" x="4126.72" y="1827.31" type="right_before_left"/>
    <node id="1034076627" x="3780.70" y="1110.08" type="priority"/>
    <node id="1034076630" x="4618.47" y="1910.71" type="dead_end" fringe="inner">
        <param key="buffer_stop" value="true"/>
    </node>
    <node id="1034076636" x="4112.64" y="1863.40" type="right_before_left"/>
    <node id="1034076659" x="4343.53" y="1650.65" type="priority"/>
    <node id="1034076671" x="4061.54" y="1787.68" type="priority"/>
    <node id="1034076677" x="4248.05" y="1538.08" type="priority"/>
    <node id="1034076699" x="4117.02" y="1852.15" type="right_before_left"/>
    <node id="1034076704" x="3863.35" y="1185.38" type="priority"/>
    <node id="1034076713" x="4122.33" y="1838.56" type="right_before_left"/>
    <node id="1034076746" x="4057.84" y="1357.30" type="priority"/>
    <node id="1034076766" x="4130.24" y="1828.79" type="priority"/>
    <node id="1034076796" x="3931.63" y="1253.36" type="priority"/>
    <node id="1034076798" x="4064.80" y="1788.70" type="priority"/>
    <node id="1034158194" x="4212.88" y="1533.87" type="dead_end"/>
    <node id="1034158235" x="4218.72" y="1539.30" type="dead_end"/>
    <node id="1034158255" x="4221.15" y="1520.57" type="dead_end"/>
    <node id="1034158261" x="4229.56" y="1528.58" type="dead_end"/>
    <node id="1034158266" x="4224.31" y="1544.45" type="dead_end"/>
    <node id="1039648415" x="5426.02" y="2675.51" type="dead_end"/>
    <node id="10600896338" x="8040.86" y="5193.44" type="dead_end"/>
    <node id="10600896339" x="8036.62" y="5182.80" type="dead_end"/>
    <node id="10600896340" x="8037.55" y="5185.14" type="priority"/>
    <node id="10600896341" x="8039.32" y="5189.57" type="priority"/>
    <node id="10600896358" x="8040.26" y="5189.14" type="priority"/>
    <node id="10600896376" x="8003.18" y="5221.64" type="priority"/>
    <node id="10600896377" x="8038.39" y="5184.74" type="right_before_left"/>
    <node id="10600896378" x="8037.41" y="5182.43" type="priority"/>
    <node id="10600896379" x="7851.31" y="5362.57" type="priority"/>
    <node id="10600896392" x="7802.17" y="5405.98" type="priority"/>
    <node id="10649323992" x="3143.61" y="1005.19" type="right_before_left"/>
    <node id="10655582862" x="7544.49" y="3734.98" type="priority"/>
    <node id="10694334611" x="7615.08" y="3880.74" type="priority"/>
    <node id="10694334612" x="7674.73" y="3849.36" type="priority"/>
    <node id="10694367453" x="7419.15" y="4271.99" type="priority"/>
    <node id="10694367466" x="7497.75" y="4274.12" type="priority"/>
    <node id="10694367467" x="7438.55" y="4260.85" type="right_before_left"/>
    <node id="10694367468" x="7445.79" y="4276.12" type="priority"/>
    <node id="10735675189" x="6994.25" y="4764.01" type="priority"/>
    <node id="10735675191" x="7098.36" y="5808.21" type="priority"/>
    <node id="10735675192" x="7084.18" y="5774.03" type="priority"/>
    <node id="10735675195" x="6838.10" y="5860.72" type="priority"/>
    <node id="10735675198" x="6880.97" y="5892.86" type="priority"/>
    <node id="10735726485" x="2791.12" y="1168.91" type="priority"/>
    <node id="10735726486" x="3839.73" y="1292.54" type="priority"/>
    <node id="10735726487" x="3798.32" y="1268.54" type="priority"/>
    <node id="10735726488" x="3823.78" y="1191.22" type="priority"/>
    <node id="10735726489" x="3787.02" y="1249.92" type="priority"/>
    <node id="10735726498" x="4138.73" y="3143.47" type="priority"/>
    <node id="10735756006" x="4041.92" y="3098.68" type="priority"/>
    <node id="10756018516" x="3805.88" y="1177.97" type="priority"/>
    <node id="10763295236" x="3604.25" y="1114.77" type="priority"/>
    <node id="10763295237" x="3606.16" y="1108.65" type="priority"/>
    <node id="10788580153" x="6295.52" y="2821.06" type="priority"/>
    <node id="10788580161" x="6204.41" y="2868.08" type="right_before_left"/>
    <node id="10788580163" x="6192.28" y="2866.39" type="priority"/>
    <node id="10788580183" x="6155.67" y="2960.07" type="priority"/>
    <node id="10788580189" x="8474.94" y="3271.28" type="right_before_left"/>
    <node id="10788580195" x="8648.10" y="3285.03" type="priority"/>
    <node id="10788680320" x="7554.48" y="6656.57" type="priority"/>
    <node id="10788680322" x="7917.06" y="6704.78" type="priority"/>
    <node id="10815292444" x="4524.20" y="1945.56" type="priority"/>
    <node id="10815292445" x="4980.82" y="2273.06" type="right_before_left"/>
    <node id="10815292446" x="4677.03" y="2007.80" type="right_before_left"/>
    <node id="10815292447" x="4868.99" y="2164.95" type="right_before_left"/>
    <node id="10815292448" x="5078.14" y="2368.08" type="priority"/>
    <node id="10815292449" x="4731.68" y="2030.70" type="right_before_left"/>
    <node id="10878315226" x="7336.78" y="4272.83" type="priority"/>
    <node id="10878315242" x="7385.51" y="4145.58" type="priority"/>
    <node id="10878315243" x="7304.69" y="4154.41" type="right_before_left"/>
    <node id="10878315244" x="7311.10" y="4207.76" type="priority"/>
    <node id="10878315246" x="7329.54" y="4242.88" type="priority"/>
    <node id="10878315252" x="7299.22" y="4136.85" type="right_before_left"/>
    <node id="10878315253" x="7279.27" y="4138.67" type="priority"/>
    <node id="10878315254" x="7332.78" y="4132.85" type="priority"/>
    <node id="10911731163" x="3138.74" y="1028.03" type="priority"/>
    <node id="10915640193" x="4542.13" y="870.92" type="priority"/>
    <node id="10915640194" x="4593.28" y="872.94" type="priority"/>
    <node id="10915640195" x="4599.60" y="873.18" type="priority"/>
    <node id="10915640201" x="4586.59" y="886.83" type="priority"/>
    <node id="10915644610" x="4567.53" y="923.88" type="dead_end"/>
    <node id="10915644611" x="4569.04" y="908.64" type="dead_end"/>
    <node id="10915644612" x="4549.50" y="906.19" type="dead_end"/>
    <node id="10915644613" x="4548.43" y="922.20" type="dead_end"/>
    <node id="10915644615" x="4541.11" y="885.13" type="priority"/>
    <node id="10915644617" x="4562.10" y="885.91" type="right_before_left"/>
    <node id="10915644618" x="4592.81" y="887.06" type="dead_end"/>
    <node id="10915644622" x="4558.80" y="923.12" type="dead_end"/>
    <node id="10915644623" x="4560.06" y="907.51" type="dead_end"/>
    <node id="10915644625" x="4603.05" y="927.01" type="dead_end"/>
    <node id="10915644626" x="4605.82" y="913.69" type="dead_end"/>
    <node id="10915644627" x="4523.71" y="902.70" type="dead_end"/>
    <node id="10915644628" x="4514.91" y="919.23" type="dead_end"/>
    <node id="10915644629" x="4591.62" y="926.00" type="dead_end"/>
    <node id="10915644630" x="4591.83" y="911.49" type="dead_end"/>
    <node id="10934128631" x="4470.88" y="972.48" type="priority"/>
    <node id="10934128634" x="4486.73" y="963.34" type="dead_end"/>
    <node id="11007236772" x="5954.12" y="5143.77" type="priority"/>
    <node id="11012531920" x="4204.80" y="1554.24" type="dead_end"/>
    <node id="11012531921" x="4192.45" y="1543.23" type="dead_end"/>
    <node id="11012531922" x="4187.09" y="1538.44" type="dead_end" fringe="inner">
        <param key="buffer_stop" value="true"/>
    </node>
    <node id="11012531933" x="4217.86" y="1538.50" type="dead_end"/>
    <node id="11012531934" x="4219.56" y="1540.07" type="dead_end"/>
    <node id="11012531935" x="4228.74" y="1527.72" type="dead_end"/>
    <node id="11012531951" x="4237.29" y="1563.72" type="dead_end"/>
    <node id="11012531952" x="4242.64" y="1568.80" type="dead_end"/>
    <node id="11012531953" x="4232.35" y="1559.03" type="dead_end"/>
    <node id="11012531957" x="4252.28" y="1570.91" type="dead_end"/>
    <node id="11012531963" x="4228.84" y="1548.75" type="dead_end"/>
    <node id="11012531980" x="4206.19" y="1532.46" type="dead_end"/>
    <node id="11012531982" x="4204.91" y="1529.86" type="dead_end"/>
    <node id="11012532000" x="4219.48" y="1545.14" type="dead_end"/>
    <node id="11012553206" x="4204.05" y="1555.65" type="dead_end"/>
    <node id="11012553208" x="4210.90" y="1561.59" type="dead_end"/>
    <node id="11012553209" x="4209.48" y="1560.35" type="dead_end"/>
    <node id="11012553210" x="4214.87" y="1557.50" type="dead_end"/>
    <node id="11012553211" x="4213.51" y="1556.23" type="dead_end"/>
    <node id="11012553219" x="4217.65" y="1551.99" type="dead_end"/>
    <node id="11398398802" x="7622.62" y="3525.57" type="right_before_left"/>
    <node id="11398398803" x="7564.33" y="3559.70" type="right_before_left"/>
    <node id="11398398804" x="7633.40" y="3519.26" type="right_before_left"/>
    <node id="11398398805" x="7619.40" y="3520.34" type="right_before_left"/>
    <node id="11398398806" x="7561.36" y="3554.45" type="right_before_left"/>
    <node id="11398398808" x="7557.95" y="3548.41" type="right_before_left"/>
    <node id="11398398809" x="7555.14" y="3542.38" type="right_before_left"/>
    <node id="11398398810" x="7611.25" y="3509.67" type="right_before_left"/>
    <node id="11398398811" x="7624.82" y="3529.15" type="right_before_left"/>
    <node id="11398398812" x="7616.69" y="3515.93" type="right_before_left"/>
    <node id="11398398814" x="7629.18" y="3503.94" type="priority"/>
    <node id="11398398815" x="7623.83" y="3511.37" type="right_before_left"/>
    <node id="11398398816" x="7630.16" y="3514.02" type="right_before_left"/>
    <node id="11398398821" x="7563.89" y="3496.00" type="right_before_left"/>
    <node id="11398398822" x="7539.16" y="3516.64" type="right_before_left"/>
    <node id="11398398823" x="7525.46" y="3502.98" type="right_before_left"/>
    <node id="11398398829" x="7504.74" y="3554.27" type="right_before_left"/>
    <node id="11398398830" x="7539.75" y="3519.94" type="right_before_left"/>
    <node id="11398398832" x="7579.28" y="3480.61" type="priority"/>
    <node id="11398398833" x="7542.50" y="3517.38" type="right_before_left"/>
    <node id="11398398839" x="7604.82" y="3492.11" type="priority"/>
    <node id="11428468014" x="7350.11" y="5112.07" type="priority"/>
    <node id="11428468028" x="7360.35" y="5064.66" type="right_before_left"/>
    <node id="11428468030" x="7386.75" y="5050.90" type="priority"/>
    <node id="11482205423" x="7409.71" y="4203.67" type="priority"/>
    <node id="11482205428" x="7387.73" y="4194.11" type="priority"/>
    <node id="11599172036" x="3505.90" y="4801.49" type="priority"/>
    <node id="11599172039" x="3523.58" y="4795.60" type="priority"/>
    <node id="11626529668" x="3366.86" y="4884.90" type="priority"/>
    <node id="11635150117" x="4954.17" y="1539.78" type="right_before_left"/>
    <node id="11635150120" x="4966.07" y="1548.44" type="priority"/>
    <node id="11635150128" x="4869.25" y="969.78" type="priority"/>
    <node id="11635150131" x="4723.84" y="1063.20" type="priority"/>
    <node id="11635150133" x="4819.42" y="1025.19" type="right_before_left"/>
    <node id="11635150134" x="4873.12" y="1136.85" type="right_before_left"/>
    <node id="11635150135" x="4991.60" y="1138.34" type="priority"/>
    <node id="11635150136" x="4105.54" y="1357.75" type="priority"/>
    <node id="11635150140" x="4205.63" y="1770.05" type="priority"/>
    <node id="11635150142" x="4404.33" y="1804.55" type="priority"/>
    <node id="11635150147" x="4232.79" y="1775.98" type="right_before_left"/>
    <node id="11635150151" x="4295.64" y="1746.26" type="right_before_left"/>
    <node id="11635150152" x="4285.10" y="1757.30" type="priority"/>
    <node id="11635150154" x="4328.37" y="1712.72" type="priority"/>
    <node id="11635150155" x="3014.30" y="525.03" type="priority"/>
    <node id="11635150159" x="3060.10" y="913.78" type="priority"/>
    <node id="11635150160" x="3040.38" y="908.50" type="right_before_left"/>
    <node id="11635150161" x="3055.76" y="929.95" type="priority"/>
    <node id="11635150162" x="3036.58" y="925.34" type="right_before_left"/>
    <node id="11635150163" x="3050.71" y="948.75" type="priority"/>
    <node id="11635150164" x="3032.21" y="944.65" type="right_before_left"/>
    <node id="11635150165" x="3043.80" y="973.84" type="priority"/>
    <node id="11635179570" x="3044.02" y="892.41" type="right_before_left"/>
    <node id="11635179571" x="3062.05" y="896.35" type="priority"/>
    <node id="11635179572" x="3062.89" y="977.76" type="priority"/>
    <node id="11635179573" x="3171.40" y="1000.74" type="priority"/>
    <node id="11635179574" x="3107.36" y="986.74" type="right_before_left"/>
    <node id="11635179576" x="3105.30" y="996.94" type="right_before_left"/>
    <node id="11635179577" x="3103.87" y="1002.80" type="priority"/>
    <node id="11635179578" x="2941.97" y="834.99" type="right_before_left"/>
    <node id="11635179586" x="2951.99" y="706.27" type="priority"/>
    <node id="11635179598" x="2999.30" y="880.63" type="right_before_left"/>
    <node id="11635179599" x="3178.71" y="1018.91" type="priority"/>
    <node id="11635179600" x="3180.14" y="1013.24" type="right_before_left"/>
    <node id="11635179619" x="2997.60" y="882.28" type="right_before_left"/>
    <node id="11635179621" x="2977.17" y="969.43" type="right_before_left"/>
    <node id="11635179622" x="3339.65" y="1664.68" type="right_before_left"/>
    <node id="11635179635" x="3271.97" y="1859.75" type="right_before_left"/>
    <node id="11635179636" x="3261.49" y="1958.10" type="priority"/>
    <node id="11635179638" x="3215.64" y="1878.20" type="priority"/>
    <node id="11635179639" x="3266.00" y="1886.31" type="right_before_left"/>
    <node id="11635179640" x="3632.72" y="2244.05" type="priority"/>
    <node id="11635179647" x="3938.52" y="2205.89" type="priority"/>
    <node id="11635179648" x="4006.36" y="2234.80" type="priority"/>
    <node id="11635179654" x="4059.87" y="2697.04" type="priority"/>
    <node id="11635179669" x="3733.33" y="2508.10" type="priority"/>
    <node id="11635179670" x="3740.17" y="2517.63" type="priority"/>
    <node id="11635179671" x="3745.30" y="2497.12" type="priority"/>
    <node id="11635179672" x="3752.65" y="2507.92" type="priority"/>
    <node id="11635179673" x="3716.43" y="2503.19" type="priority"/>
    <node id="11635179676" x="3713.74" y="2524.22" type="priority"/>
    <node id="11635179678" x="3691.69" y="2512.56" type="right_before_left"/>
    <node id="11635179680" x="3655.73" y="2445.96" type="priority"/>
    <node id="11635179683" x="3633.32" y="2492.45" type="right_before_left"/>
    <node id="11635179684" x="3616.34" y="2542.37" type="right_before_left"/>
    <node id="11635179685" x="3541.73" y="2516.17" type="priority"/>
    <node id="11635179687" x="3679.40" y="2565.18" type="priority"/>
    <node id="11635179688" x="3336.88" y="3497.01" type="priority"/>
    <node id="11635179692" x="3404.97" y="3605.72" type="right_before_left"/>
    <node id="11635179695" x="3445.64" y="3617.40" type="priority"/>
    <node id="11635179697" x="3557.61" y="3129.01" type="priority"/>
    <node id="11635179698" x="3601.51" y="3151.21" type="priority"/>
    <node id="11635179699" x="3831.71" y="3187.93" type="priority"/>
    <node id="11635179700" x="3897.80" y="3239.91" type="priority"/>
    <node id="11635179708" x="4585.18" y="3256.49" type="priority"/>
    <node id="11635179715" x="4526.58" y="3201.61" type="priority"/>
    <node id="11635179716" x="5446.22" y="3149.56" type="priority"/>
    <node id="11635179718" x="5378.96" y="3160.17" type="priority"/>
    <node id="11635179733" x="5398.82" y="3226.02" type="priority"/>
    <node id="11635736619" x="5941.93" y="4715.16" type="right_before_left"/>
    <node id="11635736627" x="5926.44" y="4555.83" type="right_before_left"/>
    <node id="11635736639" x="5897.88" y="4556.21" type="priority"/>
    <node id="11635736645" x="5858.98" y="4466.52" type="right_before_left"/>
    <node id="11635736659" x="5719.82" y="4434.92" type="right_before_left"/>
    <node id="11635736662" x="5701.64" y="4441.11" type="right_before_left"/>
    <node id="11635739272" x="5887.63" y="4277.41" type="right_before_left"/>
    <node id="11635739273" x="5905.17" y="4267.83" type="right_before_left"/>
    <node id="11635739276" x="5879.38" y="4301.23" type="right_before_left"/>
    <node id="11635739279" x="5877.15" y="4330.43" type="right_before_left"/>
    <node id="11635739280" x="5897.20" y="4210.78" type="right_before_left"/>
    <node id="11635739282" x="5918.90" y="4190.82" type="right_before_left"/>
    <node id="11635739286" x="5905.03" y="4186.38" type="right_before_left"/>
    <node id="11635739287" x="5927.01" y="4193.41" type="right_before_left"/>
    <node id="11635739289" x="5916.38" y="4228.30" type="right_before_left"/>
    <node id="11635739292" x="5882.60" y="4332.01" type="right_before_left"/>
    <node id="11635739294" x="5840.96" y="4409.93" type="right_before_left"/>
    <node id="11635739295" x="5899.72" y="4391.17" type="priority"/>
    <node id="11635739298" x="5867.42" y="4392.69" type="right_before_left"/>
    <node id="11635739301" x="5757.63" y="4444.75" type="right_before_left"/>
    <node id="11635739307" x="5702.48" y="4405.64" type="right_before_left"/>
    <node id="11635739319" x="5937.79" y="4161.89" type="right_before_left"/>
    <node id="11635739321" x="5963.19" y="4171.16" type="priority"/>
    <node id="11635739323" x="6075.86" y="3925.21" type="priority"/>
    <node id="11635739324" x="6038.47" y="3891.01" type="right_before_left"/>
    <node id="11635739329" x="5997.13" y="3967.13" type="right_before_left"/>