<edges xmlns:xsi="http://www.w3.org/2001/XMLSchema-instance" version="1.20" xsi:noNamespaceSchemaLocation="http://sumo.dlr.de/xsd/edges_file.xsd">
    <location netOffset="-456526.72,-5428703.59" convBoundary="0.00,0.00,9034.46,11365.89" origBoundary="1.932246,48.983970,2.580898,49.112513" projParameter="+proj=utm +zone=31 +ellps=WGS84 +datum=WGS84 +units=m +no_defs" />

    <edge id="-1007133850#0" from="9291337554" to="9291337558" priority="3" type="highway.residential" numLanes="1" speed="13.89" shape="4134.45,3094.08 4110.20,3079.43 4103.69,3074.19 4097.53,3062.02" disallow="tram rail_urban rail rail_electric rail_fast ship container cable_car subway aircraft wheelchair scooter drone" />
    <edge id="-1007133850#1" from="9291337555" to="9291337554" priority="3" type="highway.residential" numLanes="1" speed="13.89" shape="4178.67,3120.82 4173.37,3117.61 4134.45,3094.08" disallow="tram rail_urban rail rail_electric rail_fast ship container cable_car subway aircraft wheelchair scooter drone" />
    <edge id="-1011280619#0" from="196249032" to="11635179715" priority="3" type="highway.residential" numLanes="1" speed="8.33" shape="4545.20,3177.32 4543.49,3179.98 4533.08,3193.14 4530.08,3196.96 4526.58,3201.61" disallow="tram rail_urban rail rail_electric rail_fast ship container cable_car subway aircraft wheelchair scooter drone" />
    <edge id="-1011280619#1" from="196195585" to="196249032" priority="3" type="highway.residential" numLanes="1" speed="8.33" disallow="tram rail_urban rail rail_electric rail_fast ship container cable_car subway aircraft wheelchair scooter drone" />
    <edge id="-1011280620" from="8968723963" to="195449380" priority="3" type="highway.residential" numLanes="2" speed="8.33" shape="4570.54,3140.78 4575.11,3134.69 4588.83,3115.22" disallow="tram rail_urban rail rail_electric rail_fast ship container cable_car subway aircraft wheelchair scooter drone" />
    <edge id="-1011280621#0" from="345242741" to="196248187" priority="3" type="highway.residential" numLanes="1" speed="8.33" disallow="tram rail_urban rail rail_electric rail_fast ship container cable_car subway aircraft wheelchair scooter drone" />
    <edge id="-1011280621#1" from="8968723963" to="345242741" priority="3" type="highway.residential" numLanes="1" speed="8.33" disallow="tram rail_urban rail rail_electric rail_fast ship container cable_car subway aircraft wheelchair scooter drone" />
    <edge id="-1015402481" from="3465448355" to="4241276202" priority="3" type="highway.residential" numLanes="1" speed="13.89" shape="3082.43,5026.24 2982.80,5047.29 2976.44,5049.86" disallow="tram rail_urban rail rail_electric rail_fast ship container cable_car subway aircraft wheelchair scooter drone" />
    <edge id="-1021621426#0" from="197947277" to="197953837" priority="3" type="highway.residential" numLanes="1" speed="8.33" shape="5570.56,2548.35 5590.66,2536.41 5604.60,2528.12 5609.23,2525.37 5614.83,2522.05" disallow="tram rail_urban rail rail_electric rail_fast ship container cable_car subway aircraft wheelchair scooter drone" />
    <edge id="-1021621426#1" from="3126825257" to="197947277" priority="3" type="highway.residential" numLanes="1" speed="8.33" shape="5562.07,2554.08 5565.36,2551.39 5570.56,2548.35" disallow="tram rail_urban rail rail_electric rail_fast ship container cable_car subway aircraft wheelchair scooter drone" />
    <edge id="-1021621427#0" from="197950395" to="197950539" priority="3" type="highway.residential" numLanes="1" speed="8.33" shape="5806.98,2271.84 5803.82,2263.21 5797.38,2246.00 5789.84,2226.14 5785.66,2215.51" disallow="tram rail_urban rail rail_electric rail_fast ship container cable_car subway aircraft wheelchair scooter drone" />
    <edge id="-1021621427#1" from="197950166" to="197950395" priority="3" type="highway.residential" numLanes="1" speed="8.33" shape="5826.12,2325.71 5823.38,2318.10 5812.94,2288.90 5810.37,2281.76 5809.91,2280.48 5806.98,2271.84" disallow="tram rail_urban rail rail_electric rail_fast ship container cable_car subway aircraft wheelchair scooter drone" />
    <edge id="-1021621427#2" from="8463759139" to="197950166" priority="3" type="highway.residential" numLanes="1" speed="8.33" shape="5836.40,2359.86 5837.54,2356.96 5826.12,2325.71" disallow="tram rail_urban rail rail_electric rail_fast ship container cable_car subway aircraft wheelchair scooter drone" />
    <edge id="-1021621427#3" from="7367658127" to="8463759139" priority="3" type="highway.residential" numLanes="1" speed="8.33" shape="5823.73,2387.11 5828.94,2378.81 5836.40,2359.86" disallow="tram rail_urban rail rail_electric rail_fast ship container cable_car subway aircraft wheelchair scooter drone" />
    <edge id="-1021621427#4" from="197947994" to="7367658127" priority="3" type="highway.residential" numLanes="1" speed="8.33" shape="5684.65,2481.89 5776.62,2433.59 5811.56,2406.46 5823.73,2387.11" disallow="tram rail_urban rail rail_electric rail_fast ship container cable_car subway aircraft wheelchair scooter drone" />
    <edge id="-1021621428" from="9422349140" to="197935219" priority="3" type="highway.residential" numLanes="1" speed="13.89" shape="5720.45,2006.48 5707.72,1964.53 5704.72,1955.33" disallow="tram rail_urban rail rail_electric rail_fast ship container cable_car subway aircraft wheelchair scooter drone" />
    <edge id="-1021621429" from="197935219" to="197958593" priority="3" type="highway.residential" numLanes="1" speed="13.89" shape="5704.72,1955.33 5693.13,1961.14 5631.45,1990.30 5590.22,2008.67 5586.06,2010.52 5576.77,2014.90" disallow="tram rail_urban rail rail_electric rail_fast ship container cable_car subway aircraft wheelchair scooter drone" />
    <edge id="-1021621430#0" from="197958593" to="197935218" priority="3" type="highway.residential" numLanes="1" speed="13.89" shape="5576.77,2014.90 5566.52,2019.46 5560.65,2022.12 5514.10,2044.02 5501.75,2049.82" disallow="tram rail_urban rail rail_electric rail_fast ship container cable_car subway aircraft wheelchair scooter drone" />
    <edge id="-1021621431" from="197958593" to="197959632" priority="3" type="highway.residential" numLanes="1" speed="13.89" shape="5576.77,2014.90 5574.38,2010.38 5508.72,1937.43" disallow="tram rail_urban rail rail_electric rail_fast ship container cable_car subway aircraft wheelchair scooter drone" />
    <edge id="-1021621433" from="197958314" to="197948827" priority="3" type="highway.residential" numLanes="1" speed="13.89" shape="5329.27,1972.52 5330.57,1974.40 5331.57,1975.65 5434.49,2084.07 5437.52,2086.91" disallow="tram rail_urban rail rail_electric rail_fast ship container cable_car subway aircraft wheelchair scooter drone" />
    <edge id="-1021669703" from="229786903" to="196216000" priority="3" type="highway.residential" numLanes="1" speed="8.33" shape="3993.99,2646.35 3989.33,2644.41 3928.37,2618.94 3876.48,2597.25 3870.59,2594.73" disallow="tram rail_urban rail rail_electric rail_fast ship container cable_car subway aircraft wheelchair scooter drone" />
    <edge id="-1024002445" from="9442777248" to="197935780" priority="3" type="highway.residential" numLanes="1" speed="8.33" shape="5766.13,1909.79 5703.28,1915.74 5694.25,1916.59" disallow="tram rail_urban rail rail_electric rail_fast ship container cable_car subway aircraft wheelchair scooter drone" />
    <edge id="-1024002447" from="197959633" to="9442777248" priority="3" type="highway.residential" numLanes="1" speed="13.89" disallow="tram rail_urban rail rail_electric rail_fast ship container cable_car subway aircraft wheelchair scooter drone" />
    <edge id="-1024002448" from="9442777247" to="197959632" priority="3" type="highway.residential" numLanes="1" speed="13.89" disallow="tram rail_urban rail rail_electric rail_fast ship container cable_car subway aircraft wheelchair scooter drone" />
    <edge id="-1024002449" from="197973050" to="197972610" priority="3" type="highway.residential" numLanes="1" speed="13.89" shape="5299.39,1915.14 5294.08,1917.78 5135.47,1999.79 5128.99,2003.56" disallow="tram rail_urban rail rail_electric rail_fast ship container cable_car subway aircraft wheelchair scooter drone" />
    <edge id="-1024002450" from="9442777253" to="197970824" priority="3" type="highway.residential" numLanes="1" speed="8.33" shape="5240.12,2109.87 5189.67,2062.65 5187.78,2060.82 5185.51,2058.77" disallow="tram rail_urban rail rail_electric rail_fast ship container cable_car subway aircraft wheelchair scooter drone" />
    <edge id="-1024002452" from="9442777250" to="197970824" priority="3" type="highway.residential" numLanes="1" speed="8.33" shape="5224.77,2033.99 5191.06,2055.78 5185.51,2058.77" disallow="tram rail_urban rail rail_electric rail_fast ship container cable_car subway aircraft wheelchair scooter drone" />
    <edge id="-1024002454" from="197935215" to="9442777253" priority="3" type="highway.residential" numLanes="1" speed="13.89" shape="5310.01,2177.39 5304.84,2172.49 5240.12,2109.87" disallow="tram rail_urban rail rail_electric rail_fast ship container cable_car subway aircraft wheelchair scooter drone" />
    <edge id="-1024002455#0" from="197970824" to="9442777251" priority="3" type="highway.residential" numLanes="1" speed="8.33" shape="5185.51,2058.77 5183.36,2056.57 5181.85,2055.11 5164.02,2036.76" disallow="tram rail_urban rail rail_electric rail_fast ship container cable_car subway aircraft wheelchair scooter drone" />
    <edge id="-1024002456#0" from="197970685" to="9442777250" priority="3" type="highway.residential" numLanes="1" speed="13.89" disallow="tram rail_urban rail rail_electric rail_fast ship container cable_car subway aircraft wheelchair scooter drone" />
    <edge id="-1024002456#1" from="197958314" to="197970685" priority="3" type="highway.residential" numLanes="1" speed="13.89" disallow="tram rail_urban rail rail_electric rail_fast ship container cable_car subway aircraft wheelchair scooter drone" />
    <edge id="-1024002457#0" from="197971127" to="197958313" priority="3" type="highway.residential" numLanes="1" speed="13.89" disallow="tram rail_urban rail rail_electric rail_fast ship container cable_car subway aircraft wheelchair scooter drone" />
    <edge id="-1024002457#1" from="9442777252" to="197971127" priority="3" type="highway.residential" numLanes="1" speed="13.89" disallow="tram rail_urban rail rail_electric rail_fast ship container cable_car subway aircraft wheelchair scooter drone" />
    <edge id="-1025932324" from="197973048" to="9458883708" priority="10" type="highway.tertiary" numLanes="1" speed="22.22" shape="5003.52,2067.68 5002.16,2059.46 4995.16,2023.43" disallow="tram rail_urban rail rail_electric rail_fast ship container cable_car subway aircraft wheelchair scooter drone" />
    <edge id="-1025932325" from="197972522" to="7367658145" priority="10" type="highway.tertiary" numLanes="1" speed="8.33" shape="4978.12,1932.08 4975.23,1917.14 4963.60,1858.15 4953.32,1808.07" disallow="tram rail_urban rail rail_electric rail_fast ship container cable_car subway aircraft wheelchair scooter drone" />
    <edge id="-1027063762" from="198060230" to="198060306" priority="3" type="highway.residential" numLanes="1" speed="8.33" shape="4531.82,3312.42 4485.76,3262.00 4481.09,3256.99" disallow="tram rail_urban rail rail_electric rail_fast ship container cable_car subway aircraft wheelchair scooter drone" />
    <edge id="-1027063764" from="198060230" to="7746541134" priority="3" type="highway.residential" numLanes="1" speed="13.89" shape="4531.82,3312.42 4608.87,3280.64 4611.58,3280.37 4614.67,3280.48 4618.16,3282.01" disallow="tram rail_urban rail rail_electric rail_fast ship container cable_car subway aircraft wheelchair scooter drone" />
    <edge id="-1027063767" from="196249034" to="9469005159" priority="3" type="highway.residential" numLanes="1" speed="8.33" shape="4673.73,3219.21 4681.79,3224.79 4740.23,3264.89" disallow="tram rail_urban rail rail_electric rail_fast ship container cable_car subway aircraft wheelchair scooter drone" />
    <edge id="-1030743535#0" from="9501131011" to="9501131015" priority="3" type="highway.residential" numLanes="1" speed="13.89" disallow="tram rail_urban rail rail_electric rail_fast ship container cable_car subway aircraft wheelchair scooter drone" />
    <edge id="-1030743535#1" from="9501131014" to="9501131011" priority="3" type="highway.residential" numLanes="1" speed="13.89" disallow="tram rail_urban rail rail_electric rail_fast ship container cable_car subway aircraft wheelchair scooter drone" />
    <edge id="-1037360115" from="198087485" to="198087484" priority="3" type="highway.residential" numLanes="1" speed="13.89" disallow="tram rail_urban rail rail_electric rail_fast ship container cable_car subway aircraft wheelchair scooter drone" />
    <edge id="-1039191937" from="9569706286" to="244164975" priority="3" type="highway.residential" numLanes="1" speed="13.89" shape="4538.86,1716.83 4545.31,1698.95 4549.48,1691.94" disallow="tram rail_urban rail rail_electric rail_fast ship container cable_car subway aircraft wheelchair scooter drone" />
    <edge id="-1039191938" from="244164976" to="244164901" priority="3" type="highway.residential" numLanes="1" speed="13.89" disallow="tram rail_urban rail rail_electric rail_fast ship container cable_car subway aircraft wheelchair scooter drone" />
    <edge id="-1039191940#0" from="8441303663" to="8972473791" priority="10" type="highway.tertiary" numLanes="1" speed="8.33" shape="4388.08,1390.87 4387.96,1395.89 4387.75,1408.28" disallow="tram rail_urban rail rail_electric rail_fast ship container cable_car subway aircraft wheelchair scooter drone" />
    <edge id="-1039191940#1" from="7347192908" to="8441303663" priority="10" type="highway.tertiary" numLanes="1" speed="8.33" disallow="tram rail_urban rail rail_electric rail_fast ship container cable_car subway aircraft wheelchair scooter drone" />
    <edge id="-1039191940#2" from="126433826" to="7347192908" priority="10" type="highway.tertiary" numLanes="1" speed="8.33" disallow="tram rail_urban rail rail_electric rail_fast ship container cable_car subway aircraft wheelchair scooter drone" />
    <edge id="-1039612345" from="196195585" to="8968723962" priority="3" type="highway.residential" numLanes="1" speed="8.33" shape="4553.86,3164.90 4548.51,3160.49 4539.27,3152.96" disallow="tram rail_urban rail rail_electric rail_fast ship container cable_car subway aircraft wheelchair scooter drone" />
    <edge id="-1039612350" from="196196903" to="196196796" priority="3" type="highway.residential" numLanes="1" speed="8.33" shape="4503.95,3124.26 4498.69,3120.03 4491.34,3114.10 4457.20,3086.58 4451.48,3081.83" disallow="tram rail_urban rail rail_electric rail_fast ship container cable_car subway aircraft wheelchair scooter drone" />
    <edge id="-1039612353#0" from="196196615" to="196195297" priority="3" type="highway.residential" numLanes="1" speed="8.33" shape="4396.67,3037.30 4390.75,3032.63 4362.95,3010.38 4353.27,3004.01" disallow="tram rail_urban rail rail_electric rail_fast ship container cable_car subway aircraft wheelchair scooter drone" />
    <edge id="-1039612355" from="196249800" to="196248187" priority="3" type="highway.residential" numLanes="1" speed="8.33" shape="4729.43,3134.84 4665.42,3143.21 4637.64,3146.86 4623.18,3148.70 4590.19,3152.91 4571.24,3155.34 4561.68,3153.21" disallow="tram rail_urban rail rail_electric rail_fast ship container cable_car subway aircraft wheelchair scooter drone" />
    <edge id="-1039612356" from="196254807" to="9573059722" priority="3" type="highway.residential" numLanes="1" speed="13.89" shape="5007.94,3094.66 5005.04,3095.06 4940.49,3104.00 4911.21,3107.99" disallow="tram rail_urban rail rail_electric rail_fast ship container cable_car subway aircraft wheelchair scooter drone" />
    <edge id="-1039612357" from="9573059722" to="9573059720" priority="3" type="highway.residential" numLanes="1" speed="8.33" shape="4911.21,3107.99 4854.69,3115.70 4795.61,3123.76" disallow="tram rail_urban rail rail_electric rail_fast ship container cable_car subway aircraft wheelchair scooter drone" />
    <edge id="-1039612358" from="196248190" to="9573059724" priority="3" type="highway.residential" numLanes="1" speed="13.89" disallow="tram rail_urban rail rail_electric rail_fast ship container cable_car subway aircraft wheelchair scooter drone" />
    <edge id="-1039612359" from="9573059724" to="196254807" priority="3" type="highway.residential" numLanes="1" speed="8.33" shape="5150.35,3073.92 5092.95,3082.27 5011.62,3094.12 5007.94,3094.66" disallow="tram rail_urban rail rail_electric rail_fast ship container cable_car subway aircraft wheelchair scooter drone" />
    <edge id="-1039918444" from="196175776" to="250907430" priority="3" type="highway.residential" numLanes="1" speed="13.89" disallow="tram rail_urban rail rail_electric rail_fast ship container cable_car subway aircraft wheelchair scooter drone" />
    <edge id="-1039918445#0" from="9868834838" to="196173546" priority="3" type="highway.residential" numLanes="1" speed="13.89" disallow="tram rail_urban rail rail_electric rail_fast ship container cable_car subway aircraft wheelchair scooter drone" />
    <edge id="-1039918445#1" from="9891319315" to="9868834838" priority="3" type="highway.residential" numLanes="1" speed="13.89" disallow="tram rail_urban rail rail_electric rail_fast ship container cable_car subway aircraft wheelchair scooter drone" />
    <edge id="-1039918445#2" from="639150560" to="9891319315" priority="3" type="highway.residential" numLanes="1" speed="13.89" disallow="tram rail_urban rail rail_electric rail_fast ship container cable_car subway aircraft wheelchair scooter drone" />
    <edge id="-1039918445#3" from="196175772" to="639150560" priority="3" type="highway.residential" numLanes="1" speed="13.89" shape="3286.92,2146.37 3286.70,2166.85 3286.62,2175.32 3286.37,2198.22" disallow="tram rail_urban rail rail_electric rail_fast ship container cable_car subway aircraft wheelchair scooter drone" />
    <edge id="-1047606011" from="196249698" to="195449380" priority="3" type="highway.residential" numLanes="1" speed="8.33" disallow="tram rail_urban rail rail_electric rail_fast ship container cable_car subway aircraft wheelchair scooter drone" />
    <edge id="-1047606896#0" from="2441843464" to="9827869875" priority="11" type="highway.secondary" numLanes="1" speed="22.22" shape="2893.98,3564.56 2903.44,3554.32 2911.99,3544.11 2928.72,3522.27 2938.43,3507.74 2949.82,3489.32 2958.75,3473.26 2972.10,3445.18" disallow="tram rail_urban rail rail_electric rail_fast ship container cable_car subway aircraft wheelchair scooter drone">
        <param key="ref" value="D 47" />
    </edge>
    <edge id="-1047606896#1" from="173653158" to="2441843464" priority="11" type="highway.secondary" numLanes="1" speed="22.22" shape="2548.31,3832.71 2622.32,3777.30 2685.41,3730.35 2714.23,3709.01 2750.95,3681.83 2801.63,3643.58 2832.32,3619.92 2849.08,3606.70 2866.62,3591.59 2881.51,3577.74 2893.98,3564.56" disallow="tram rail_urban rail rail_electric rail_fast ship container cable_car subway aircraft wheelchair scooter drone">
        <param key="ref" value="D 47" />
    </edge>
    <edge id="-1052829127#0" from="9575493705" to="194452238" priority="3" type="highway.residential" numLanes="1" speed="13.89" disallow="tram rail_urban rail rail_electric rail_fast ship container cable_car subway aircraft wheelchair scooter drone" />
    <edge id="-1052829127#1" from="9575493707" to="9575493705" priority="3" type="highway.residential" numLanes="1" speed="13.89" shape="4253.94,2167.95 4256.64,2174.99 4258.26,2177.53 4260.60,2179.43 4263.42,2180.52 4266.43,2180.70 4269.35,2179.94 4271.89,2178.31 4273.80,2175.98 4274.90,2173.17 4275.08,2170.17 4274.31,2167.25 4271.59,2159.58" disallow="tram rail_urban rail rail_electric rail_fast ship container cable_car subway aircraft wheelchair scooter drone" />
    <edge id="-1052829127#2" from="194452231" to="9575493707" priority="3" type="highway.residential" numLanes="1" speed="13.89" disallow="tram rail_urban rail rail_electric rail_fast ship container cable_car subway aircraft wheelchair scooter drone" />
    <edge id="-1052829129" from="203832394" to="203832741" priority="3" type="highway.residential" numLanes="1" speed="13.89" shape="4303.76,2031.22 4333.88,2017.35 4336.23,2015.97 4337.97,2013.88 4338.90,2011.31 4338.88,2008.59 4338.81,2006.13 4338.30,2003.65 4336.66,2000.88 4335.20,1999.37 4332.82,1998.01 4330.14,1997.57 4327.44,1998.05 4295.07,2012.99" disallow="tram rail_urban rail rail_electric rail_fast ship container cable_car subway aircraft wheelchair scooter drone" />
    <edge id="-1062413278" from="9760227981" to="9760227983" priority="3" type="highway.residential" numLanes="1" speed="8.33" shape="6814.15,5809.59 6836.55,5774.47 6853.89,5750.18" disallow="tram rail_urban rail rail_electric rail_fast ship container cable_car subway aircraft wheelchair scooter drone" />
    <edge id="-1062413279#0" from="9760227983" to="9760227987" priority="3" type="highway.residential" numLanes="1" speed="8.33" shape="6853.89,5750.18 6861.91,5757.79 6879.61,5766.76 6893.85,5772.52 6897.74,5773.81 6901.64,5775.10" disallow="tram rail_urban rail rail_electric rail_fast ship container cable_car subway aircraft wheelchair scooter drone" />
    <edge id="-1062413279#1" from="9760227984" to="9760227983" priority="3" type="highway.residential" numLanes="1" speed="8.33" disallow="tram rail_urban rail rail_electric rail_fast ship container cable_car subway aircraft wheelchair scooter drone" />
    <edge id="-1077052305#0" from="9044851700" to="3883026137" priority="3" type="highway.residential" numLanes="1" speed="13.89" shape="4740.19,1111.25 4751.00,1132.11 4772.48,1161.61 4787.25,1178.45" disallow="tram rail_urban rail rail_electric rail_fast ship container cable_car subway aircraft wheelchair scooter drone" />
    <edge id="-1077052305#1" from="9044851688" to="9044851700" priority="3" type="highway.residential" numLanes="1" speed="13.89" disallow="tram rail_urban rail rail_electric rail_fast ship container cable_car subway aircraft wheelchair scooter drone" />
    <edge id="-1077052305#2" from="9044851698" to="9044851688" priority="3" type="highway.residential" numLanes="1" speed="13.89" disallow="tram rail_urban rail rail_electric rail_fast ship container cable_car subway aircraft wheelchair scooter drone" />
    <edge id="-1077052305#3" from="11635150131" to="9044851698" priority="3" type="highway.residential" numLanes="1" speed="13.89" disallow="tram rail_urban rail rail_electric rail_fast ship container cable_car subway aircraft wheelchair scooter drone" />
    <edge id="-1077052305#4" from="8972473804" to="11635150131" priority="3" type="highway.residential" numLanes="1" speed="13.89" shape="4680.01,899.60 4689.17,929.68 4722.70,1059.31 4723.84,1063.20" disallow="tram rail_urban rail rail_electric rail_fast ship container cable_car subway aircraft wheelchair scooter drone" />
    <edge id="-1078738442" from="635134541" to="9889138292" priority="3" type="highway.residential" numLanes="1" speed="13.89" disallow="tram rail_urban rail rail_electric rail_fast ship container cable_car subway aircraft wheelchair scooter drone" />
    <edge id="-1078738445" from="1422714030" to="1422713097" priority="3" type="highway.residential" numLanes="1" speed="13.89" shape="6368.27,4331.04 6363.95,4373.75 6363.55,4377.64" disallow="tram rail_urban rail rail_electric rail_fast ship container cable_car subway aircraft wheelchair scooter drone" />
    <edge id="-1078738446" from="9889138305" to="635134541" priority="3" type="highway.residential" numLanes="1" speed="13.89" shape="6344.06,4329.78 6349.95,4316.86 6352.91,4310.39" disallow="tram rail_urban rail rail_electric rail_fast ship container cable_car subway aircraft wheelchair scooter drone" />
    <edge id="-1078738449" from="635134545" to="9889138306" priority="3" type="highway.residential" numLanes="1" speed="13.89" shape="6197.57,4639.84 6264.46,4494.05 6277.56,4468.98 6297.87,4426.92" disallow="tram rail_urban rail rail_electric rail_fast ship container cable_car subway aircraft wheelchair scooter drone" />
    <edge id="-1078998888#0" from="9891319195" to="10162806790" priority="10" type="highway.tertiary" numLanes="1" speed="22.22" shape="3479.75,3381.86 3467.60,3416.44 3463.83,3424.66 3460.38,3429.97 3455.38,3435.61" disallow="tram rail_urban rail rail_electric rail_fast ship container cable_car subway aircraft wheelchair scooter drone" />
    <edge id="-1078998888#1" from="195442315" to="9891319195" priority="10" type="highway.tertiary" numLanes="1" speed="22.22" shape="3543.04,3233.45 3513.81,3290.88 3497.99,3330.09 3486.35,3361.92 3479.75,3381.86" disallow="tram rail_urban rail rail_electric rail_fast ship container cable_car subway aircraft wheelchair scooter drone" />
    <edge id="-1078998890#0" from="9891319245" to="9891319250" priority="10" type="highway.tertiary" numLanes="1" speed="22.22" shape="3429.28,3450.25 3418.07,3452.42 3404.75,3452.25 3394.56,3449.87 3382.17,3445.80 3246.46,3391.89 3215.03,3379.41 3183.76,3366.99 3066.45,3320.10" disallow="tram rail_urban rail rail_electric rail_fast ship container cable_car subway aircraft wheelchair scooter drone" />
    <edge id="-1078998890#1" from="9891319191" to="9891319245" priority="10" type="highway.tertiary" numLanes="1" speed="22.22" disallow="tram rail_urban rail rail_electric rail_fast ship container cable_car subway aircraft wheelchair scooter drone" />
    <edge id="-1078998908" from="9777038722" to="639141627" priority="3" type="highway.residential" numLanes="1" speed="13.89" disallow="tram rail_urban rail rail_electric rail_fast ship container cable_car subway aircraft wheelchair scooter drone" />
    <edge id="-1078998909" from="1812347202" to="9777038724" priority="3" type="highway.residential" numLanes="1" speed="13.89" disallow="tram rail_urban rail rail_electric rail_fast ship container cable_car subway aircraft wheelchair scooter drone" />
    <edge id="-1078998914" from="1812347218" to="9797148427" priority="3" type="highway.residential" numLanes="1" speed="13.89" disallow="tram rail_urban rail rail_electric rail_fast ship container cable_car subway aircraft wheelchair scooter drone" />
    <edge id="-1078998915" from="9797148428" to="639150569" priority="3" type="highway.residential" numLanes="1" speed="13.89" disallow="tram rail_urban rail rail_electric rail_fast ship container cable_car subway aircraft wheelchair scooter drone" />
    <edge id="-1095702632#0" from="12670305137" to="8603279990" priority="10" type="highway.tertiary" numLanes="1" speed="8.33" disallow="tram rail_urban rail rail_electric rail_fast ship container cable_car subway aircraft wheelchair scooter drone">
        <param key="ref" value="D 184" />
    </edge>
    <edge id="-1109076477#0" from="4241275982" to="380457994" priority="10" type="highway.tertiary" numLanes="1" speed="13.89" shape="3488.78,4802.24 3455.83,4801.49 3451.68,4801.40" disallow="tram rail_urban rail rail_electric rail_fast ship container cable_car subway aircraft wheelchair scooter drone">
        <param key="ref" value="D 10" />
    </edge>
    <edge id="-1109076477#1" from="11599172036" to="4241275982" priority="10" type="highway.tertiary" numLanes="1" speed="13.89" shape="3505.90,4801.49 3498.12,4802.46 3488.78,4802.24" disallow="tram rail_urban rail rail_electric rail_fast ship container cable_car subway aircraft wheelchair scooter drone">
        <param key="ref" value="D 10" />
    </edge>
    <edge id="-1110724892#0" from="10161893614" to="1910703736" priority="3" type="highway.residential" numLanes="1" speed="13.89" shape="3899.24,6378.69 3908.10,6380.48 3914.17,6383.68 3913.66,6388.94" disallow="tram rail_urban rail rail_electric rail_fast ship container cable_car subway aircraft wheelchair scooter drone" />
    <edge id="-1110724892#1" from="3761955345" to="10161893614" priority="3" type="highway.residential" numLanes="1" speed="13.89" disallow="tram rail_urban rail rail_electric rail_fast ship container cable_car subway aircraft wheelchair scooter drone" />
    <edge id="-1111818687" from="10162806790" to="9891319191" priority="10" type="highway.tertiary" numLanes="1" speed="22.22" shape="3455.38,3435.61 3447.93,3441.36 3443.99,3443.52" disallow="tram rail_urban rail rail_electric rail_fast ship container cable_car subway aircraft wheelchair scooter drone" />
    <edge id="-1112553253#0" from="4241857909" to="198115066" priority="4" type="highway.unclassified" numLanes="1" speed="13.89" shape="4473.75,1310.19 4474.08,1262.64 4465.68,1254.94 4459.14,1248.94" disallow="tram rail_urban rail rail_electric rail_fast ship container cable_car subway aircraft wheelchair scooter drone" />
    <edge id="-1112553253#1" from="8441237349" to="4241857909" priority="4" type="highway.unclassified" numLanes="1" speed="13.89" disallow="tram rail_urban rail rail_electric rail_fast ship container cable_car subway aircraft wheelchair scooter drone" />
    <edge id="-1137206656#0" from="10600896341" to="7563027885" priority="4" type="highway.unclassified" numLanes="1" speed="13.89" shape="8039.32,5189.57 8034.66,5191.71 7995.19,5209.87 7969.52,5224.20 7943.58,5244.10 7928.58,5257.77 7885.84,5298.20 7860.71,5323.87 7849.05,5339.38 7840.81,5352.82 7833.07,5367.42 7813.28,5411.31" disallow="tram rail_urban rail rail_electric rail_fast ship container cable_car subway aircraft wheelchair scooter drone" />
    <edge id="-1137206656#1" from="10600896358" to="10600896341" priority="4" type="highway.unclassified" numLanes="1" speed="13.89" disallow="tram rail_urban rail rail_electric rail_fast ship container cable_car subway aircraft wheelchair scooter drone" />